@<TRIPOS>MOLECULE
Chitosan.pdb
215 223 1 0 0
SMALL
AMBER ff14SB


@<TRIPOS>ATOM
      1 O           0.6320   -3.8180    6.4200 O.3       1 UNL   -0.3383
      2 O          -3.1230   -2.5160    8.9370 O.3       1 UNL   -0.3385
      3 O           4.5610   -3.9190    8.9480 O.3       1 UNL   -0.3383
      4 O          -2.7250   -3.4870    6.7910 O.3       1 UNL   -0.3389
      5 O           7.5550   -0.9210   10.2750 O.3       1 UNL   -0.3383
      6 O           2.7210   -4.8450    7.0950 O.3       1 UNL   -0.3389
      7 O          -5.0290   -2.7250   10.8550 O.3       1 UNL   -0.3421
      8 O           6.2040   -3.4700   10.5340 O.3       1 UNL   -0.3389
      9 O          -6.7180   -1.1100   11.0300 O.3       1 UNL   -0.3416
     10 O           9.4830   -1.4860    9.5790 O.3       1 UNL   -0.3389
     11 O          10.2380   -2.8920    7.4310 O.3       1 UNL   -0.3383
     12 O          -9.8870    0.4980   11.7670 O.3       1 UNL   -0.3389
     13 O          11.5310   -4.2650    8.6840 O.3       1 UNL   -0.3389
     14 O         -12.0210   -0.5230   11.8940 O.3       1 UNL   -0.3383
     15 O          -0.5720   -2.6510    9.5440 O.3       1 UNL   -0.3843
     16 O          11.2430   -7.2050    8.9150 O.3       1 UNL   -0.3383
     17 O          -4.8750    0.7260    9.7090 O.3       1 UNL   -0.3882
     18 O           1.8530   -2.2690   10.2830 O.3       1 UNL   -0.3843
     19 O           4.0830   -0.5250   11.2520 O.3       1 UNL   -0.3843
     20 O           8.1120   -0.2360    6.0500 O.3       1 UNL   -0.3843
     21 O          -8.7380   -2.1510    8.7970 O.3       1 UNL   -0.3843
     22 O           9.0080   -5.9650    6.2650 O.3       1 UNL   -0.3843
     23 O          13.3440   -8.0230    9.5800 O.3       1 UNL   -0.3389
     24 O         -12.8330    1.0740   15.1860 O.3       1 UNL   -0.3391
     25 O          -1.5260   -6.8530    7.6850 O.3       1 UNL   -0.3936
     26 O          -2.7070   -0.8310   12.9640 O.3       1 UNL   -0.3936
     27 O           1.3600   -6.9110    9.8450 O.3       1 UNL   -0.3936
     28 O           5.6650   -4.1930   13.4400 O.3       1 UNL   -0.3936
     29 O          10.0750    1.7170    7.8870 O.3       1 UNL   -0.3936
     30 O          -8.4300    2.7360   11.6960 O.3       1 UNL   -0.3936
     31 O         -12.3360   -2.7050   13.4140 O.3       1 UNL   -0.3843
     32 O          12.8570   -2.9910    6.4590 O.3       1 UNL   -0.3936
     33 O          11.0340   -8.6400   12.7630 O.3       1 UNL   -0.3843
     34 O          14.6050   -8.6910   12.3320 O.3       1 UNL   -0.3874
     35 O         -13.1650    0.2590   17.3100 O.3       1 UNL   -0.3635
     36 O          -5.7590   -4.5950    8.0170 O.3       1 UNL   -0.3038
     37 O         -12.4330    3.4560   13.6110 O.3       1 UNL   -0.3936
     38 O          -7.2080   -3.3800    6.7100 O.2       1 UNL   -0.2426
     39 O          13.3130  -11.1250    8.9470 O.3       1 UNL   -0.3936
     40 N          -5.4110   -2.4780    7.8630 N.3       1 UNL   -0.2804
     41 N          -1.1760   -1.2260    6.1610 N.4       1 UNL    0.2396
     42 N           3.2820   -1.5520    6.9150 N.4       1 UNL    0.2396
     43 N           6.0900   -0.2760    8.3150 N.4       1 UNL    0.2396
     44 N           7.4460   -3.5830    7.0150 N.4       1 UNL    0.2396
     45 N         -11.2350   -2.5760   10.1890 N.4       1 UNL    0.2396
     46 N           8.9070   -5.7340    9.9410 N.4       1 UNL    0.2396
     47 N          12.5780   -5.7020   11.9590 N.4       1 UNL    0.2396
     48 N         -12.2960   -2.5620   16.3910 N.4       1 UNL    0.2395
     49 C          -0.3300   -3.9120    7.4760 C.3       1 UNL    0.1209
     50 C          -3.4040   -1.3100    9.7670 C.3       1 UNL    0.1173
     51 C           3.2080   -4.1470    9.4090 C.3       1 UNL    0.1209
     52 C           6.4820   -1.1830   11.2330 C.3       1 UNL    0.1209
     53 C          -0.5350   -2.5780    8.1420 C.3       1 UNL    0.1291
     54 C          -4.5170   -0.4980    9.0590 C.3       1 UNL    0.1062
     55 C          -1.4610   -1.5840    7.5360 C.3       1 UNL    0.0546
     56 C           2.5880   -2.8030    9.1770 C.3       1 UNL    0.1291
     57 C          -5.7320   -1.4210    8.8170 C.3       1 UNL    0.1042
     58 C           2.3390   -2.3940    7.7000 C.3       1 UNL    0.0546
     59 C          -2.7430   -2.2860    7.5820 C.3       1 UNL    0.2030
     60 C           2.0090   -3.6430    6.7940 C.3       1 UNL    0.2030
     61 C           5.3120   -0.5260   10.5600 C.3       1 UNL    0.1291
     62 C           5.2790   -1.1900    9.2070 C.3       1 UNL    0.0546
     63 C           5.4670   -2.9290    9.4300 C.3       1 UNL    0.2030
     64 C          -1.6680   -4.4520    6.9440 C.3       1 UNL    0.1130
     65 C          -6.1010   -2.0580   10.1720 C.3       1 UNL    0.1792
     66 C           2.7820   -5.2960    8.4530 C.3       1 UNL    0.1130
     67 C           9.9040   -1.4580    7.2860 C.3       1 UNL    0.1209
     68 C          -3.8400   -1.9560   11.0940 C.3       1 UNL    0.1126
     69 C           6.3040   -2.6450   11.6750 C.3       1 UNL    0.1130
     70 C           7.6570   -2.1700    7.5890 C.3       1 UNL    0.0546
     71 C           8.5650   -1.4650    6.6070 C.3       1 UNL    0.1291
     72 C           8.1370   -1.8750    9.3510 C.3       1 UNL    0.2030
     73 C          -7.9760   -0.5660   10.5680 C.3       1 UNL    0.1207
     74 C          10.1010   -0.6710    8.6280 C.3       1 UNL    0.1130
     75 C          -8.9540   -1.6860   10.1430 C.3       1 UNL    0.1291
     76 C          -8.4670    0.2590   11.7790 C.3       1 UNL    0.1130
     77 C         -10.4310   -1.3500   10.3390 C.3       1 UNL    0.0546
     78 C          10.1810   -3.7950    8.5730 C.3       1 UNL    0.2030
     79 C           9.1480   -5.0710    8.6110 C.3       1 UNL    0.0546
     80 C          11.0960   -6.3920    7.6480 C.3       1 UNL    0.1209
     81 C           9.5620   -6.1640    7.5600 C.3       1 UNL    0.1291
     82 C         -10.6210   -0.7260   11.7290 C.3       1 UNL    0.2030
     83 C          11.9200   -5.0520    7.5580 C.3       1 UNL    0.1130
     84 C          -2.2840   -5.6370    7.7200 C.3       1 UNL    0.0721
     85 C           1.7660   -6.4470    8.5730 C.3       1 UNL    0.0721
     86 C          -3.9660   -1.2080   12.4420 C.3       1 UNL    0.0721
     87 C           5.1660   -3.1430   12.5980 C.3       1 UNL    0.0721
     88 C         -12.4840   -0.3390   13.2370 C.3       1 UNL    0.1209
     89 C           9.7270    0.8070    8.9120 C.3       1 UNL    0.0721
     90 C          12.3510   -7.0350    9.8180 C.3       1 UNL    0.2030
     91 C          -7.6410    1.5720   11.8980 C.3       1 UNL    0.0721
     92 C         -12.0460   -1.4920   14.1330 C.3       1 UNL    0.1290
     93 C         -12.1670    1.0060   13.8980 C.3       1 UNL    0.1130
     94 C          11.9370   -6.8850   11.3450 C.3       1 UNL    0.0545
     95 C          12.0500   -4.1790    6.2260 C.3       1 UNL    0.0721
     96 C         -12.7230   -1.4030   15.5210 C.3       1 UNL    0.0543
     97 C          12.2540   -8.0400   12.3190 C.3       1 UNL    0.1286
     98 C          13.2850   -9.0600   11.8550 C.3       1 UNL    0.1140
     99 C          13.3610   -9.2330   10.3420 C.3       1 UNL    0.1126
    100 C         -12.4410    0.0320   16.0970 C.3       1 UNL    0.2001
    101 C          -6.2570   -3.4690    7.4570 C.2       1 UNL    0.3507
    102 C         -12.6880    2.1720   13.0230 C.3       1 UNL    0.0721
    103 C          12.4630  -10.3450    9.7900 C.3       1 UNL    0.0721
    104 C          -6.5440   -5.7580    8.1690 C.3       1 UNL    0.0469
    105 H           0.0590   -4.6280    8.1890 H         1 UNL    0.0664
    106 H          -2.4980   -0.7160    9.9290 H         1 UNL    0.0662
    107 H           3.1980   -4.4640   10.4600 H         1 UNL    0.0664
    108 H           6.6800   -0.5860   12.1330 H         1 UNL    0.0664
    109 H           0.2930   -1.9990    7.9660 H         1 UNL    0.0691
    110 H          -4.1380   -0.1600    8.0880 H         1 UNL    0.0651
    111 H          -1.4480   -0.6690    8.1320 H         1 UNL    0.0933
    112 H           3.3840   -2.1650    9.4030 H         1 UNL    0.0691
    113 H          -6.5510   -0.8370    8.3870 H         1 UNL    0.0587
    114 H           1.7050   -1.5470    7.7520 H         1 UNL    0.0933
    115 H          -3.4650   -1.6610    7.0600 H         1 UNL    0.0987
    116 H           2.4630   -3.4140    5.8260 H         1 UNL    0.0987
    117 H           5.5610    0.5410   10.4230 H         1 UNL    0.0691
    118 H           4.3570   -0.9880    8.7360 H         1 UNL    0.0933
    119 H           6.1710   -3.1790    8.6910 H         1 UNL    0.0987
    120 H          -1.4900   -4.8420    5.9290 H         1 UNL    0.0658
    121 H          -6.7900   -2.8850   10.0130 H         1 UNL    0.0945
    122 H          10.5730   -1.0240    6.5350 H         1 UNL    0.0664
    123 H           3.6960   -5.9130    8.4950 H         1 UNL    0.0658
    124 H          -3.0620   -2.7030   11.3100 H         1 UNL    0.0658
    125 H           7.2470   -2.9050   12.1730 H         1 UNL    0.0658
    126 H           6.6440   -1.8900    7.3630 H         1 UNL    0.0933
    127 H           8.6710   -2.1070    5.7160 H         1 UNL    0.0691
    128 H           8.1010   -2.8550    9.8160 H         1 UNL    0.0987
    129 H          -7.8010    0.1170    9.7270 H         1 UNL    0.0664
    130 H          11.1510   -0.7420    8.7510 H         1 UNL    0.0658
    131 H          -8.7290   -2.5710   10.7450 H         1 UNL    0.0691
    132 H          -8.2410   -0.3170   12.6880 H         1 UNL    0.0658
    133 H         -10.7740   -0.6500    9.5670 H         1 UNL    0.0933
    134 H          10.0860   -3.3300    9.5390 H         1 UNL    0.0987
    135 H           8.1340   -4.7660    8.4600 H         1 UNL    0.0933
    136 H          11.3850   -7.0430    6.8190 H         1 UNL    0.0664
    137 H           9.0690   -7.1120    7.8770 H         1 UNL    0.0691
    138 H         -10.2170   -1.4220   12.4680 H         1 UNL    0.0987
    139 H          12.9650   -5.3100    7.7420 H         1 UNL    0.0658
    140 H          -2.4810   -5.3650    8.7610 H         1 UNL    0.0592
    141 H          -3.2600   -5.8670    7.2710 H         1 UNL    0.0592
    142 H           0.8840   -6.3220    7.9490 H         1 UNL    0.0592
    143 H           2.2390   -7.3150    8.0780 H         1 UNL    0.0592
    144 H          -4.6250   -0.3380   12.4340 H         1 UNL    0.0592
    145 H          -4.4040   -1.9130   13.1670 H         1 UNL    0.0592
    146 H           4.3590   -3.6090   12.0260 H         1 UNL    0.0592
    147 H           4.7400   -2.3900   13.2590 H         1 UNL    0.0592
    148 H         -13.5770   -0.4060   13.1460 H         1 UNL    0.0664
    149 H          -4.6260   -2.9600    8.2910 H         1 UNL    0.1524
    150 H          10.3270    1.0470    9.7960 H         1 UNL    0.0592
    151 H           8.6350    0.9090    9.1880 H         1 UNL    0.0592
    152 H          -0.2230   -0.8890    6.0890 H         1 UNL    0.1967
    153 H          -1.2140   -2.0930    5.6160 H         1 UNL    0.1967
    154 H           3.3330   -0.5860    7.2930 H         1 UNL    0.1967
    155 H           4.1660   -2.0040    6.9830 H         1 UNL    0.1967
    156 H           5.6030    0.6020    8.1510 H         1 UNL    0.1967
    157 H           6.9250    0.0290    8.8450 H         1 UNL    0.1967
    158 H          12.8510   -6.1040    9.5680 H         1 UNL    0.0987
    159 H          -7.2090    1.6370   12.9020 H         1 UNL    0.0592
    160 H          -6.8010    1.6100   11.2000 H         1 UNL    0.0592
    161 H         -10.9640   -1.4820   14.2980 H         1 UNL    0.0691
    162 H           6.7880   -3.5580    6.2330 H         1 UNL    0.1967
    163 H           8.3020   -3.9500    6.6000 H         1 UNL    0.1967
    164 H         -11.0910    1.1460   14.0590 H         1 UNL    0.0658
    165 H          -0.7400   -3.5830    9.7710 H         1 UNL    0.2109
    166 H          -5.5040    1.1450    9.0990 H         1 UNL    0.2107
    167 H          10.8670   -6.6680   11.3960 H         1 UNL    0.0933
    168 H           0.9430   -2.0960    9.9470 H         1 UNL    0.2109
    169 H           3.5570   -1.2940   10.9920 H         1 UNL    0.2109
    170 H          12.5860   -4.7090    5.4400 H         1 UNL    0.0592
    171 H          11.1100   -3.8580    5.7580 H         1 UNL    0.0592
    172 H         -13.8080   -1.5030   15.3880 H         1 UNL    0.0933
    173 H          12.6570   -7.6300   13.2590 H         1 UNL    0.0691
    174 H           7.2040   -0.4670    5.7190 H         1 UNL    0.2109
    175 H         -11.0840   -3.2050   10.9840 H         1 UNL    0.1967
    176 H         -10.8890   -3.0970    9.3710 H         1 UNL    0.1967
    177 H           7.9130   -6.0050    9.9700 H         1 UNL    0.1967
    178 H           9.3940   -6.6290    9.9140 H         1 UNL    0.1967
    179 H          13.0840  -10.0240   12.3410 H         1 UNL    0.0660
    180 H          14.3850   -9.5870   10.1690 H         1 UNL    0.0658
    181 H          -9.3410   -1.6950    8.1790 H         1 UNL    0.2109
    182 H         -11.3690    0.1630   16.3020 H         1 UNL    0.0985
    183 H           8.0190   -5.9670    6.3480 H         1 UNL    0.2109
    184 H         -12.2250    2.1620   12.0310 H         1 UNL    0.0592
    185 H         -13.7730    2.1000   12.8940 H         1 UNL    0.0592
    186 H          -2.1590   -7.5680    7.5110 H         1 UNL    0.2102
    187 H          -2.7510   -0.9540   13.9080 H         1 UNL    0.2102
    188 H           0.8420   -7.7150    9.6470 H         1 UNL    0.2102
    189 H           5.4390   -5.0480   13.0250 H         1 UNL    0.2102
    190 H          10.3420    2.5320    8.3490 H         1 UNL    0.2102
    191 H          12.1470   -5.5090   12.8640 H         1 UNL    0.1967
    192 H          13.5750   -5.8290   12.1230 H         1 UNL    0.1967
    193 H          12.0980  -11.0300   10.5660 H         1 UNL    0.0592
    194 H          11.6170   -9.9830    9.2020 H         1 UNL    0.0592
    195 H         -11.8500   -3.2610   15.7860 H         1 UNL    0.1967
    196 H         -13.1590   -3.0280   16.6790 H         1 UNL    0.1967
    197 H          -8.6790    2.7600   10.7570 H         1 UNL    0.2102
    198 H         -12.5360   -2.4180   12.4860 H         1 UNL    0.2109
    199 H          12.2380   -2.3340    6.8490 H         1 UNL    0.2102
    200 H          10.4420   -8.7550   12.0050 H         1 UNL    0.2109
    201 H          14.8180   -7.7930   12.0220 H         1 UNL    0.2107
    202 H         -12.6160   -0.0240   18.0630 H         1 UNL    0.2136
    203 H         -12.7810    3.4140   14.5160 H         1 UNL    0.2102
    204 H          12.8090  -11.4560    8.1830 H         1 UNL    0.2102
    205 H          -7.6030   -5.5210    8.2400 H         1 UNL    0.0537
    206 H          -6.3400   -6.4660    7.3630 H         1 UNL    0.0537
    207 H          -6.2070   -6.2080    9.1070 H         1 UNL    0.0537
    208 HN1        -1.8350   -0.5438    5.8140 H         1 UNL    0.1967
    209 HN2         2.9885   -1.5236    5.9490 H         1 UNL    0.1967
    210 HN3         6.3434   -0.7292    7.4487 H         1 UNL    0.1967
    211 HN4         7.1106   -4.2069    7.7350 H         1 UNL    0.1967
    212 HN5       -12.2149   -2.3539   10.0865 H         1 UNL    0.1967
    213 HN6         9.1821   -5.1587   10.7242 H         1 UNL    0.1967
    214 HN7        12.4435   -4.9044   11.3542 H         1 UNL    0.1967
    215 HN8       -11.7164   -2.2823   17.1694 H         1 UNL    0.1967
@<TRIPOS>BOND
     1    1   49 1
     2    1   60 1
     3    2   50 1
     4    2   59 1
     5    3   51 1
     6    3   63 1
     7    4   59 1
     8    4   64 1
     9    5   52 1
    10    5   72 1
    11    6   60 1
    12    6   66 1
    13    7   65 1
    14    7   68 1
    15    8   63 1
    16    8   69 1
    17    9   65 1
    18    9   73 1
    19   10   72 1
    20   10   74 1
    21   11   67 1
    22   11   78 1
    23   12   76 1
    24   12   82 1
    25   13   78 1
    26   13   83 1
    27   14   82 1
    28   14   88 1
    29   15  165 1
    30   15   53 1
    31   16   80 1
    32   16   90 1
    33   17  166 1
    34   17   54 1
    35   18  168 1
    36   18   56 1
    37   19  169 1
    38   19   61 1
    39   20  174 1
    40   20   71 1
    41   21  181 1
    42   21   75 1
    43   22  183 1
    44   22   81 1
    45   23   90 1
    46   23   99 1
    47   24   93 1
    48   24  100 1
    49   25   84 1
    50   25  186 1
    51   26   86 1
    52   26  187 1
    53   27   85 1
    54   27  188 1
    55   28   87 1
    56   28  189 1
    57   29   89 1
    58   29  190 1
    59   30   91 1
    60   30  197 1
    61   31  198 1
    62   31   92 1
    63   32   95 1
    64   32  199 1
    65   33  200 1
    66   33   97 1
    67   34  201 1
    68   34   98 1
    69   35  202 1
    70   35  100 1
    71   36  101 1
    72   36  104 1
    73   37  102 1
    74   37  203 1
    75   38  101 2
    76   39  103 1
    77   39  204 1
    78   40  101 1
    79   40  149 1
    80   40   57 1
    81   41  152 1
    82   41  153 1
    83   41   55 1
    84   42  154 1
    85   42  155 1
    86   42   58 1
    87   43  156 1
    88   43  157 1
    89   43   62 1
    90   44  162 1
    91   44  163 1
    92   44   70 1
    93   45  175 1
    94   45  176 1
    95   45   77 1
    96   46  177 1
    97   46  178 1
    98   46   79 1
    99   47  191 1
   100   47  192 1
   101   47   94 1
   102   48  195 1
   103   48  196 1
   104   48   96 1
   105   49   53 1
   106   49   64 1
   107   49  105 1
   108   50   54 1
   109   50   68 1
   110   50  106 1
   111   51   56 1
   112   51   66 1
   113   51  107 1
   114   52   61 1
   115   52   69 1
   116   52  108 1
   117   53   55 1
   118   53  109 1
   119   54   57 1
   120   54  110 1
   121   55   59 1
   122   55  111 1
   123   56   58 1
   124   56  112 1
   125   57   65 1
   126   57  113 1
   127   58   60 1
   128   58  114 1
   129   59  115 1
   130   60  116 1
   131   61   62 1
   132   61  117 1
   133   62   63 1
   134   62  118 1
   135   63  119 1
   136   64   84 1
   137   64  120 1
   138   65  121 1
   139   66   85 1
   140   66  123 1
   141   67   71 1
   142   67   74 1
   143   67  122 1
   144   68   86 1
   145   68  124 1
   146   69   87 1
   147   69  125 1
   148   70   71 1
   149   70   72 1
   150   70  126 1
   151   71  127 1
   152   72  128 1
   153   73   75 1
   154   73   76 1
   155   73  129 1
   156   74   89 1
   157   74  130 1
   158   75   77 1
   159   75  131 1
   160   76   91 1
   161   76  132 1
   162   77   82 1
   163   77  133 1
   164   78   79 1
   165   78  134 1
   166   79   81 1
   167   79  135 1
   168   80   81 1
   169   80   83 1
   170   80  136 1
   171   81  137 1
   172   82  138 1
   173   83   95 1
   174   83  139 1
   175   84  140 1
   176   84  141 1
   177   85  142 1
   178   85  143 1
   179   86  144 1
   180   86  145 1
   181   87  146 1
   182   87  147 1
   183   88   92 1
   184   88   93 1
   185   88  148 1
   186   89  150 1
   187   89  151 1
   188   90   94 1
   189   90  158 1
   190   91  159 1
   191   91  160 1
   192   92   96 1
   193   92  161 1
   194   93  102 1
   195   93  164 1
   196   94   97 1
   197   94  167 1
   198   95  170 1
   199   95  171 1
   200   96  100 1
   201   96  172 1
   202   97   98 1
   203   97  173 1
   204   98   99 1
   205   98  179 1
   206   99  103 1
   207   99  180 1
   208  100  182 1
   209  102  184 1
   210  102  185 1
   211  103  193 1
   212  103  194 1
   213  104  205 1
   214  104  206 1
   215  104  207 1
   216  208   41 1
   217  209   42 1
   218  210   43 1
   219  211   44 1
   220  212   45 1
   221  213   46 1
   222  214   47 1
   223  215   48 1
@<TRIPOS>SUBSTRUCTURE
     1 UNL     1 RESIDUE           4 A     UNL     0 ROOT
