71853
 OpenBabel09062308243D

207215  0  0  1  0  0  0  0  0999 V2000
    0.6318   -3.8184    6.4202 O   0  0  0  0  0  0  0  0  0  0  0  0
   -3.1225   -2.5162    8.9368 O   0  0  0  0  0  0  0  0  0  0  0  0
    4.5605   -3.9189    8.9480 O   0  0  0  0  0  0  0  0  0  0  0  0
   -2.7255   -3.4866    6.7908 O   0  0  0  0  0  0  0  0  0  0  0  0
    7.5551   -0.9210   10.2746 O   0  0  0  0  0  0  0  0  0  0  0  0
    2.7214   -4.8445    7.0949 O   0  0  0  0  0  0  0  0  0  0  0  0
   -5.0290   -2.7255   10.8549 O   0  0  0  0  0  0  0  0  0  0  0  0
    6.2041   -3.4704   10.5340 O   0  0  0  0  0  0  0  0  0  0  0  0
   -6.7185   -1.1102   11.0302 O   0  0  0  0  0  0  0  0  0  0  0  0
    9.4826   -1.4857    9.5790 O   0  0  0  0  0  0  0  0  0  0  0  0
   10.2382   -2.8919    7.4306 O   0  0  0  0  0  0  0  0  0  0  0  0
   -9.8868    0.4981   11.7670 O   0  0  0  0  0  0  0  0  0  0  0  0
   11.5314   -4.2646    8.6837 O   0  0  0  0  0  0  0  0  0  0  0  0
  -12.0208   -0.5230   11.8941 O   0  0  0  0  0  0  0  0  0  0  0  0
   -0.5718   -2.6506    9.5441 O   0  0  0  0  0  0  0  0  0  0  0  0
   11.2433   -7.2049    8.9145 O   0  0  0  0  0  0  0  0  0  0  0  0
   -4.8755    0.7259    9.7085 O   0  0  0  0  0  0  0  0  0  0  0  0
    1.8527   -2.2691   10.2831 O   0  0  0  0  0  0  0  0  0  0  0  0
    4.0832   -0.5248   11.2522 O   0  0  0  0  0  0  0  0  0  0  0  0
    8.1120   -0.2365    6.0498 O   0  0  0  0  0  0  0  0  0  0  0  0
   -8.7381   -2.1513    8.7967 O   0  0  0  0  0  0  0  0  0  0  0  0
    9.0079   -5.9651    6.2652 O   0  0  0  0  0  0  0  0  0  0  0  0
   13.3444   -8.0231    9.5796 O   0  0  0  0  0  0  0  0  0  0  0  0
  -12.8332    1.0744   15.1863 O   0  0  0  0  0  0  0  0  0  0  0  0
   -1.5256   -6.8526    7.6848 O   0  0  0  0  0  0  0  0  0  0  0  0
   -2.7074   -0.8314   12.9641 O   0  0  0  0  0  0  0  0  0  0  0  0
    1.3600   -6.9111    9.8446 O   0  0  0  0  0  0  0  0  0  0  0  0
    5.6647   -4.1933   13.4400 O   0  0  0  0  0  0  0  0  0  0  0  0
   10.0754    1.7171    7.8866 O   0  0  0  0  0  0  0  0  0  0  0  0
   -8.4301    2.7365   11.6957 O   0  0  0  0  0  0  0  0  0  0  0  0
  -12.3359   -2.7050   13.4139 O   0  0  0  0  0  0  0  0  0  0  0  0
   12.8573   -2.9907    6.4587 O   0  0  0  0  0  0  0  0  0  0  0  0
   11.0341   -8.6396   12.7631 O   0  0  0  0  0  0  0  0  0  0  0  0
   14.6048   -8.6914   12.3321 O   0  0  0  0  0  0  0  0  0  0  0  0
  -13.1653    0.2585   17.3100 O   0  0  0  0  0  0  0  0  0  0  0  0
   -5.7593   -4.5952    8.0171 O   0  0  0  0  0  0  0  0  0  0  0  0
  -12.4334    3.4559   13.6113 O   0  0  0  0  0  0  0  0  0  0  0  0
   -7.2084   -3.3797    6.7096 O   0  0  0  0  0  0  0  0  0  0  0  0
   13.3126  -11.1246    8.9474 O   0  0  0  0  0  0  0  0  0  0  0  0
   -5.4109   -2.4781    7.8632 N   0  0  0  0  0  0  0  0  0  0  0  0
   -1.1764   -1.2264    6.1614 N   0  0  0  0  0  0  0  0  0  0  0  0
    3.2822   -1.5520    6.9149 N   0  0  0  0  0  0  0  0  0  0  0  0
    6.0900   -0.2755    8.3145 N   0  0  0  0  0  0  0  0  0  0  0  0
    7.4462   -3.5827    7.0150 N   0  0  0  0  0  0  0  0  0  0  0  0
  -11.2347   -2.5762   10.1893 N   0  0  0  0  0  0  0  0  0  0  0  0
    8.9069   -5.7345    9.9407 N   0  0  0  0  0  0  0  0  0  0  0  0
   12.5778   -5.7020   11.9589 N   0  0  0  0  0  0  0  0  0  0  0  0
  -12.2962   -2.5620   16.3910 N   0  0  0  0  0  0  0  0  0  0  0  0
   -0.3297   -3.9119    7.4760 C   0  0  1  0  0  0  0  0  0  0  0  0
   -3.4041   -1.3100    9.7665 C   0  0  1  0  0  0  0  0  0  0  0  0
    3.2076   -4.1469    9.4093 C   0  0  1  0  0  0  0  0  0  0  0  0
    6.4818   -1.1835   11.2334 C   0  0  1  0  0  0  0  0  0  0  0  0
   -0.5354   -2.5777    8.1417 C   0  0  1  0  0  0  0  0  0  0  0  0
   -4.5166   -0.4981    9.0585 C   0  0  1  0  0  0  0  0  0  0  0  0
   -1.4606   -1.5843    7.5361 C   0  0  2  0  0  0  0  0  0  0  0  0
    2.5881   -2.8030    9.1771 C   0  0  1  0  0  0  0  0  0  0  0  0
   -5.7323   -1.4209    8.8174 C   0  0  2  0  0  0  0  0  0  0  0  0
    2.3386   -2.3938    7.7001 C   0  0  2  0  0  0  0  0  0  0  0  0
   -2.7429   -2.2859    7.5821 C   0  0  2  0  0  0  0  0  0  0  0  0
    2.0086   -3.6428    6.7944 C   0  0  2  0  0  0  0  0  0  0  0  0
    5.3119   -0.5260   10.5600 C   0  0  1  0  0  0  0  0  0  0  0  0
    5.2787   -1.1898    9.2065 C   0  0  2  0  0  0  0  0  0  0  0  0
    5.4674   -2.9292    9.4304 C   0  0  2  0  0  0  0  0  0  0  0  0
   -1.6680   -4.4524    6.9436 C   0  0  1  0  0  0  0  0  0  0  0  0
   -6.1015   -2.0585   10.1720 C   0  0  1  0  0  0  0  0  0  0  0  0
    2.7824   -5.2964    8.4530 C   0  0  1  0  0  0  0  0  0  0  0  0
    9.9042   -1.4583    7.2857 C   0  0  1  0  0  0  0  0  0  0  0  0
   -3.8396   -1.9561   11.0941 C   0  0  1  0  0  0  0  0  0  0  0  0
    6.3040   -2.6450   11.6755 C   0  0  1  0  0  0  0  0  0  0  0  0
    7.6568   -2.1697    7.5890 C   0  0  2  0  0  0  0  0  0  0  0  0
    8.5653   -1.4654    6.6070 C   0  0  1  0  0  0  0  0  0  0  0  0
    8.1367   -1.8750    9.3510 C   0  0  2  0  0  0  0  0  0  0  0  0
   -7.9758   -0.5661   10.5680 C   0  0  1  0  0  0  0  0  0  0  0  0
   10.1014   -0.6714    8.6281 C   0  0  1  0  0  0  0  0  0  0  0  0
   -8.9540   -1.6862   10.1432 C   0  0  1  0  0  0  0  0  0  0  0  0
   -8.4675    0.2594   11.7788 C   0  0  1  0  0  0  0  0  0  0  0  0
  -10.4307   -1.3504   10.3392 C   0  0  2  0  0  0  0  0  0  0  0  0
   10.1810   -3.7949    8.5734 C   0  0  2  0  0  0  0  0  0  0  0  0
    9.1484   -5.0710    8.6109 C   0  0  1  0  0  0  0  0  0  0  0  0
   11.0962   -6.3917    7.6483 C   0  0  1  0  0  0  0  0  0  0  0  0
    9.5621   -6.1639    7.5596 C   0  0  2  0  0  0  0  0  0  0  0  0
  -10.6210   -0.7255   11.7290 C   0  0  1  0  0  0  0  0  0  0  0  0
   11.9202   -5.0520    7.5580 C   0  0  1  0  0  0  0  0  0  0  0  0
   -2.2839   -5.6374    7.7200 C   0  0  0  0  0  0  0  0  0  0  0  0
    1.7664   -6.4467    8.5734 C   0  0  0  0  0  0  0  0  0  0  0  0
   -3.9661   -1.2078   12.4422 C   0  0  0  0  0  0  0  0  0  0  0  0
    5.1660   -3.1426   12.5977 C   0  0  0  0  0  0  0  0  0  0  0  0
  -12.4838   -0.3393   13.2366 C   0  0  1  0  0  0  0  0  0  0  0  0
    9.7273    0.8075    8.9121 C   0  0  0  0  0  0  0  0  0  0  0  0
   12.3511   -7.0351    9.8181 C   0  0  2  0  0  0  0  0  0  0  0  0
   -7.6414    1.5716   11.8981 C   0  0  0  0  0  0  0  0  0  0  0  0
  -12.0457   -1.4915   14.1334 C   0  0  1  0  0  0  0  0  0  0  0  0
  -12.1667    1.0058   13.8975 C   0  0  1  0  0  0  0  0  0  0  0  0
   11.9365   -6.8853   11.3449 C   0  0  1  0  0  0  0  0  0  0  0  0
   12.0499   -4.1787    6.2264 C   0  0  0  0  0  0  0  0  0  0  0  0
  -12.7226   -1.4028   15.5208 C   0  0  2  0  0  0  0  0  0  0  0  0
   12.2539   -8.0404   12.3192 C   0  0  2  0  0  0  0  0  0  0  0  0
   13.2852   -9.0603   11.8546 C   0  0  1  0  0  0  0  0  0  0  0  0
   13.3613   -9.2329   10.3420 C   0  0  1  0  0  0  0  0  0  0  0  0
  -12.4413    0.0323   16.0973 C   0  0  1  0  0  0  0  0  0  0  0  0
   -6.2574   -3.4691    7.4574 C   0  0  0  0  0  0  0  0  0  0  0  0
  -12.6875    2.1719   13.0227 C   0  0  0  0  0  0  0  0  0  0  0  0
   12.4632  -10.3453    9.7899 C   0  0  0  0  0  0  0  0  0  0  0  0
   -6.5437   -5.7578    8.1686 C   0  0  0  0  0  0  0  0  0  0  0  0
    0.0594   -4.6279    8.1889 H   0  0  0  0  0  0  0  0  0  0  0  0
   -2.4975   -0.7162    9.9287 H   0  0  0  0  0  0  0  0  0  0  0  0
    3.1982   -4.4637   10.4596 H   0  0  0  0  0  0  0  0  0  0  0  0
    6.6801   -0.5856   12.1330 H   0  0  0  0  0  0  0  0  0  0  0  0
    0.2927   -1.9993    7.9665 H   0  0  0  0  0  0  0  0  0  0  0  0
   -4.1380   -0.1604    8.0882 H   0  0  0  0  0  0  0  0  0  0  0  0
   -1.4476   -0.6693    8.1324 H   0  0  0  0  0  0  0  0  0  0  0  0
    3.3837   -2.1652    9.4027 H   0  0  0  0  0  0  0  0  0  0  0  0
   -6.5512   -0.8368    8.3867 H   0  0  0  0  0  0  0  0  0  0  0  0
    1.7053   -1.5473    7.7524 H   0  0  0  0  0  0  0  0  0  0  0  0
   -3.4646   -1.6608    7.0604 H   0  0  0  0  0  0  0  0  0  0  0  0
    2.4627   -3.4143    5.8260 H   0  0  0  0  0  0  0  0  0  0  0  0
    5.5609    0.5415   10.4231 H   0  0  0  0  0  0  0  0  0  0  0  0
    4.3573   -0.9884    8.7359 H   0  0  0  0  0  0  0  0  0  0  0  0
    6.1708   -3.1789    8.6910 H   0  0  0  0  0  0  0  0  0  0  0  0
   -1.4895   -4.8422    5.9287 H   0  0  0  0  0  0  0  0  0  0  0  0
   -6.7905   -2.8848   10.0130 H   0  0  0  0  0  0  0  0  0  0  0  0
   10.5732   -1.0239    6.5354 H   0  0  0  0  0  0  0  0  0  0  0  0
    3.6955   -5.9130    8.4955 H   0  0  0  0  0  0  0  0  0  0  0  0
   -3.0620   -2.7029   11.3096 H   0  0  0  0  0  0  0  0  0  0  0  0
    7.2468   -2.9052   12.1726 H   0  0  0  0  0  0  0  0  0  0  0  0
    6.6438   -1.8900    7.3628 H   0  0  0  0  0  0  0  0  0  0  0  0
    8.6708   -2.1066    5.7157 H   0  0  0  0  0  0  0  0  0  0  0  0
    8.1008   -2.8549    9.8164 H   0  0  0  0  0  0  0  0  0  0  0  0
   -7.8007    0.1172    9.7266 H   0  0  0  0  0  0  0  0  0  0  0  0
   11.1506   -0.7422    8.7512 H   0  0  0  0  0  0  0  0  0  0  0  0
   -8.7288   -2.5707   10.7449 H   0  0  0  0  0  0  0  0  0  0  0  0
   -8.2412   -0.3166   12.6877 H   0  0  0  0  0  0  0  0  0  0  0  0
  -10.7736   -0.6505    9.5668 H   0  0  0  0  0  0  0  0  0  0  0  0
   10.0857   -3.3304    9.5390 H   0  0  0  0  0  0  0  0  0  0  0  0
    8.1336   -4.7665    8.4602 H   0  0  0  0  0  0  0  0  0  0  0  0
   11.3853   -7.0430    6.8195 H   0  0  0  0  0  0  0  0  0  0  0  0
    9.0694   -7.1117    7.8774 H   0  0  0  0  0  0  0  0  0  0  0  0
  -10.2172   -1.4220   12.4680 H   0  0  0  0  0  0  0  0  0  0  0  0
   12.9648   -5.3098    7.7416 H   0  0  0  0  0  0  0  0  0  0  0  0
   -2.4806   -5.3651    8.7608 H   0  0  0  0  0  0  0  0  0  0  0  0
   -3.2599   -5.8675    7.2711 H   0  0  0  0  0  0  0  0  0  0  0  0
    0.8840   -6.3217    7.9489 H   0  0  0  0  0  0  0  0  0  0  0  0
    2.2390   -7.3152    8.0778 H   0  0  0  0  0  0  0  0  0  0  0  0
   -4.6250   -0.3378   12.4338 H   0  0  0  0  0  0  0  0  0  0  0  0
   -4.4041   -1.9134   13.1668 H   0  0  0  0  0  0  0  0  0  0  0  0
    4.3591   -3.6091   12.0262 H   0  0  0  0  0  0  0  0  0  0  0  0
    4.7404   -2.3902   13.2589 H   0  0  0  0  0  0  0  0  0  0  0  0
  -13.5770   -0.4056   13.1456 H   0  0  0  0  0  0  0  0  0  0  0  0
   -4.6264   -2.9601    8.2915 H   0  0  0  0  0  0  0  0  0  0  0  0
   10.3269    1.0471    9.7957 H   0  0  0  0  0  0  0  0  0  0  0  0
    8.6351    0.9086    9.1878 H   0  0  0  0  0  0  0  0  0  0  0  0
   -0.2228   -0.8894    6.0889 H   0  0  0  0  0  0  0  0  0  0  0  0
   -1.2140   -2.0928    5.6160 H   0  0  0  0  0  0  0  0  0  0  0  0
    3.3330   -0.5862    7.2929 H   0  0  0  0  0  0  0  0  0  0  0  0
    4.1657   -2.0038    6.9833 H   0  0  0  0  0  0  0  0  0  0  0  0
    5.6034    0.6022    8.1514 H   0  0  0  0  0  0  0  0  0  0  0  0
    6.9251    0.0290    8.8455 H   0  0  0  0  0  0  0  0  0  0  0  0
   12.8510   -6.1040    9.5680 H   0  0  0  0  0  0  0  0  0  0  0  0
   -7.2094    1.6372   12.9018 H   0  0  0  0  0  0  0  0  0  0  0  0
   -6.8006    1.6100   11.1999 H   0  0  0  0  0  0  0  0  0  0  0  0
  -10.9636   -1.4816   14.2979 H   0  0  0  0  0  0  0  0  0  0  0  0
    6.7877   -3.5580    6.2326 H   0  0  0  0  0  0  0  0  0  0  0  0
    8.3022   -3.9495    6.6003 H   0  0  0  0  0  0  0  0  0  0  0  0
  -11.0913    1.1464   14.0588 H   0  0  0  0  0  0  0  0  0  0  0  0
   -0.7397   -3.5825    9.7714 H   0  0  0  0  0  0  0  0  0  0  0  0
   -5.5043    1.1447    9.0989 H   0  0  0  0  0  0  0  0  0  0  0  0
   10.8675   -6.6676   11.3958 H   0  0  0  0  0  0  0  0  0  0  0  0
    0.9427   -2.0961    9.9470 H   0  0  0  0  0  0  0  0  0  0  0  0
    3.5571   -1.2941   10.9917 H   0  0  0  0  0  0  0  0  0  0  0  0
   12.5862   -4.7089    5.4401 H   0  0  0  0  0  0  0  0  0  0  0  0
   11.1102   -3.8582    5.7584 H   0  0  0  0  0  0  0  0  0  0  0  0
  -13.8076   -1.5026   15.3877 H   0  0  0  0  0  0  0  0  0  0  0  0
   12.6571   -7.6305   13.2586 H   0  0  0  0  0  0  0  0  0  0  0  0
    7.2040   -0.4665    5.7191 H   0  0  0  0  0  0  0  0  0  0  0  0
  -11.0837   -3.2046   10.9843 H   0  0  0  0  0  0  0  0  0  0  0  0
  -10.8886   -3.0971    9.3710 H   0  0  0  0  0  0  0  0  0  0  0  0
    7.9126   -6.0046    9.9698 H   0  0  0  0  0  0  0  0  0  0  0  0
    9.3941   -6.6293    9.9138 H   0  0  0  0  0  0  0  0  0  0  0  0
   13.0839  -10.0239   12.3406 H   0  0  0  0  0  0  0  0  0  0  0  0
   14.3846   -9.5872   10.1695 H   0  0  0  0  0  0  0  0  0  0  0  0
   -9.3415   -1.6949    8.1788 H   0  0  0  0  0  0  0  0  0  0  0  0
  -11.3690    0.1631   16.3023 H   0  0  0  0  0  0  0  0  0  0  0  0
    8.0192   -5.9666    6.3479 H   0  0  0  0  0  0  0  0  0  0  0  0
  -12.2250    2.1618   12.0306 H   0  0  0  0  0  0  0  0  0  0  0  0
  -13.7731    2.1001   12.8939 H   0  0  0  0  0  0  0  0  0  0  0  0
   -2.1587   -7.5680    7.5105 H   0  0  0  0  0  0  0  0  0  0  0  0
   -2.7512   -0.9540   13.9080 H   0  0  0  0  0  0  0  0  0  0  0  0
    0.8416   -7.7150    9.6470 H   0  0  0  0  0  0  0  0  0  0  0  0
    5.4386   -5.0483   13.0246 H   0  0  0  0  0  0  0  0  0  0  0  0
   10.3417    2.5322    8.3490 H   0  0  0  0  0  0  0  0  0  0  0  0
   12.1466   -5.5086   12.8643 H   0  0  0  0  0  0  0  0  0  0  0  0
   13.5745   -5.8289   12.1231 H   0  0  0  0  0  0  0  0  0  0  0  0
   12.0977  -11.0299   10.5658 H   0  0  0  0  0  0  0  0  0  0  0  0
   11.6172   -9.9827    9.2019 H   0  0  0  0  0  0  0  0  0  0  0  0
  -11.8503   -3.2612   15.7864 H   0  0  0  0  0  0  0  0  0  0  0  0
  -13.1586   -3.0278   16.6788 H   0  0  0  0  0  0  0  0  0  0  0  0
   -8.6790    2.7596   10.7566 H   0  0  0  0  0  0  0  0  0  0  0  0
  -12.5355   -2.4184   12.4862 H   0  0  0  0  0  0  0  0  0  0  0  0
   12.2381   -2.3337    6.8491 H   0  0  0  0  0  0  0  0  0  0  0  0
   10.4421   -8.7550   12.0048 H   0  0  0  0  0  0  0  0  0  0  0  0
   14.8182   -7.7930   12.0218 H   0  0  0  0  0  0  0  0  0  0  0  0
  -12.6155   -0.0241   18.0634 H   0  0  0  0  0  0  0  0  0  0  0  0
  -12.7809    3.4136   14.5157 H   0  0  0  0  0  0  0  0  0  0  0  0
   12.8085  -11.4563    8.1828 H   0  0  0  0  0  0  0  0  0  0  0  0
   -7.6029   -5.5208    8.2397 H   0  0  0  0  0  0  0  0  0  0  0  0
   -6.3397   -6.4659    7.3626 H   0  0  0  0  0  0  0  0  0  0  0  0
   -6.2068   -6.2085    9.1072 H   0  0  0  0  0  0  0  0  0  0  0  0
  4 59  1  0  0  0  0
  4 64  1  0  0  0  0
  6 60  1  0  0  0  0
  6 66  1  0  0  0  0
  7 65  1  0  0  0  0
  7 68  1  0  0  0  0
  8 63  1  0  0  0  0
  8 69  1  0  0  0  0
 10 72  1  0  0  0  0
 10 74  1  0  0  0  0
 12 76  1  0  0  0  0
 12 82  1  0  0  0  0
 13 78  1  0  0  0  0
 13 83  1  0  0  0  0
 15165  1  0  0  0  0
 17166  1  0  0  0  0
 18168  1  0  0  0  0
 19169  1  0  0  0  0
 20174  1  0  0  0  0
 21181  1  0  0  0  0
 22183  1  0  0  0  0
 23 90  1  0  0  0  0
 23 99  1  0  0  0  0
 24 93  1  0  0  0  0
 24100  1  0  0  0  0
 25 84  1  0  0  0  0
 25186  1  0  0  0  0
 26 86  1  0  0  0  0
 26187  1  0  0  0  0
 27 85  1  0  0  0  0
 27188  1  0  0  0  0
 28 87  1  0  0  0  0
 28189  1  0  0  0  0
 29 89  1  0  0  0  0
 29190  1  0  0  0  0
 30 91  1  0  0  0  0
 30197  1  0  0  0  0
 31198  1  0  0  0  0
 32 95  1  0  0  0  0
 32199  1  0  0  0  0
 33200  1  0  0  0  0
 34201  1  0  0  0  0
 35202  1  0  0  0  0
 36101  1  0  0  0  0
 36104  1  0  0  0  0
 37102  1  0  0  0  0
 37203  1  0  0  0  0
 38101  2  0  0  0  0
 39103  1  0  0  0  0
 39204  1  0  0  0  0
 40101  1  0  0  0  0
 40149  1  0  0  0  0
 41152  1  0  0  0  0
 41153  1  0  0  0  0
 42154  1  0  0  0  0
 42155  1  0  0  0  0
 43156  1  0  0  0  0
 43157  1  0  0  0  0
 44162  1  0  0  0  0
 44163  1  0  0  0  0
 45175  1  0  0  0  0
 45176  1  0  0  0  0
 46177  1  0  0  0  0
 46178  1  0  0  0  0
 47191  1  0  0  0  0
 47192  1  0  0  0  0
 48195  1  0  0  0  0
 48196  1  0  0  0  0
 49 53  1  0  0  0  0
 49 64  1  0  0  0  0
 49105  1  1  0  0  0
 49  1  1  0  0  0  0
 50 54  1  0  0  0  0
 50 68  1  0  0  0  0
 50106  1  1  0  0  0
 50  2  1  0  0  0  0
 51  3  1  0  0  0  0
 51 56  1  0  0  0  0
 51 66  1  0  0  0  0
 51107  1  1  0  0  0
 52  5  1  0  0  0  0
 52 61  1  0  0  0  0
 52 69  1  0  0  0  0
 52108  1  1  0  0  0
 53 55  1  0  0  0  0
 53109  1  6  0  0  0
 53 15  1  0  0  0  0
 54 57  1  0  0  0  0
 54110  1  6  0  0  0
 54 17  1  0  0  0  0
 55 41  1  0  0  0  0
 55 59  1  0  0  0  0
 55111  1  1  0  0  0
 56 58  1  0  0  0  0
 56112  1  1  0  0  0
 56 18  1  0  0  0  0
 57 40  1  0  0  0  0
 57 65  1  0  0  0  0
 57113  1  6  0  0  0
 58 42  1  0  0  0  0
 58 60  1  0  0  0  0
 58114  1  1  0  0  0
 59115  1  6  0  0  0
 59  2  1  0  0  0  0
 60  1  1  0  0  0  0
 60116  1  6  0  0  0
 61 62  1  0  0  0  0
 61117  1  6  0  0  0
 61 19  1  0  0  0  0
 62 43  1  0  0  0  0
 62 63  1  0  0  0  0
 62118  1  6  0  0  0
 63  3  1  0  0  0  0
 63119  1  6  0  0  0
 64 84  1  0  0  0  0
 64120  1  6  0  0  0
 65121  1  6  0  0  0
 65  9  1  0  0  0  0
 66 85  1  0  0  0  0
 66123  1  6  0  0  0
 67 11  1  0  0  0  0
 67 71  1  0  0  0  0
 67 74  1  0  0  0  0
 67122  1  6  0  0  0
 68 86  1  0  0  0  0
 68124  1  1  0  0  0
 69 87  1  0  0  0  0
 69125  1  1  0  0  0
 70 44  1  0  0  0  0
 70 71  1  0  0  0  0
 70 72  1  0  0  0  0
 70126  1  6  0  0  0
 71127  1  6  0  0  0
 71 20  1  0  0  0  0
 72  5  1  0  0  0  0
 72128  1  1  0  0  0
 73  9  1  0  0  0  0
 73 75  1  0  0  0  0
 73 76  1  0  0  0  0
 73129  1  6  0  0  0
 74 89  1  0  0  0  0
 74130  1  1  0  0  0
 75 21  1  0  0  0  0
 75 77  1  0  0  0  0
 75131  1  1  0  0  0
 76 91  1  0  0  0  0
 76132  1  1  0  0  0
 77 82  1  0  0  0  0
 77133  1  6  0  0  0
 77 45  1  0  0  0  0
 78 11  1  0  0  0  0
 78 79  1  0  0  0  0
 78134  1  1  0  0  0
 79 46  1  0  0  0  0
 79 81  1  0  0  0  0
 79135  1  6  0  0  0
 80 16  1  0  0  0  0
 80 81  1  0  0  0  0
 80 83  1  0  0  0  0
 80136  1  6  0  0  0
 81137  1  1  0  0  0
 81 22  1  0  0  0  0
 82138  1  1  0  0  0
 82 14  1  0  0  0  0
 83 95  1  0  0  0  0
 83139  1  1  0  0  0
 84140  1  0  0  0  0
 84141  1  0  0  0  0
 85142  1  0  0  0  0
 85143  1  0  0  0  0
 86144  1  0  0  0  0
 86145  1  0  0  0  0
 87146  1  0  0  0  0
 87147  1  0  0  0  0
 88 14  1  0  0  0  0
 88 92  1  0  0  0  0
 88 93  1  0  0  0  0
 88148  1  6  0  0  0
 89150  1  0  0  0  0
 89151  1  0  0  0  0
 90 16  1  0  0  0  0
 90 94  1  0  0  0  0
 90158  1  6  0  0  0
 91159  1  0  0  0  0
 91160  1  0  0  0  0
 92 31  1  0  0  0  0
 92 96  1  0  0  0  0
 92161  1  1  0  0  0
 93102  1  0  0  0  0
 93164  1  1  0  0  0
 94 47  1  0  0  0  0
 94 97  1  0  0  0  0
 94167  1  1  0  0  0
 95170  1  0  0  0  0
 95171  1  0  0  0  0
 96100  1  0  0  0  0
 96172  1  6  0  0  0
 96 48  1  0  0  0  0
 97 98  1  0  0  0  0
 97173  1  1  0  0  0
 97 33  1  0  0  0  0
 98 34  1  0  0  0  0
 98 99  1  0  0  0  0
 98179  1  1  0  0  0
 99103  1  0  0  0  0
 99180  1  6  0  0  0
100182  1  1  0  0  0
100 35  1  0  0  0  0
102184  1  0  0  0  0
102185  1  0  0  0  0
103193  1  0  0  0  0
103194  1  0  0  0  0
104205  1  0  0  0  0
104206  1  0  0  0  0
104207  1  0  0  0  0
M  END
>  <PUBCHEM_COMPOUND_CID>
71853

>  <PUBCHEM_COMPOUND_CANONICALIZED>
1

>  <PUBCHEM_CACTVS_COMPLEXITY>
2630

>  <PUBCHEM_CACTVS_HBOND_ACCEPTOR>
47

>  <PUBCHEM_CACTVS_HBOND_DONOR>
29

>  <PUBCHEM_CACTVS_ROTATABLE_BOND>
27

>  <PUBCHEM_CACTVS_SUBSKEYS>
AAADcfB//gAAAAAAAAAAAAAAAAAAAAAAAAAkSJEiQAAAAAAAAAAAHgAQCAAACDzxgAcCCALABgAIAAAAGAAAAAAAAAAAAIAIAAETEAIAgAAnQAAHFgAXAAHwcA8AAAAAAAAAAAAAAAAAAAAAAAAAAAAAAA==

>  <PUBCHEM_IUPAC_OPENEYE_NAME>
methyl N-[(2S,3R,4R,5S,6R)-5-[(2S,3R,4R,5S,6R)-3-amino-5-[(2S,3R,4R,5S,6R)-3-amino-5-[(2S,3R,4R,5S,6R)-3-amino-5-[(2S,3R,4R,5S,6R)-3-amino-5-[(2S,3R,4R,5S,6R)-3-amino-5-[(2S,3R,4R,5S,6R)-3-amino-4,5-dihydroxy-6-(hydroxymethyl)tetrahydropyran-2-yl]oxy-4-hydroxy-6-(hydroxymethyl)tetrahydropyran-2-yl]oxy-4-hydroxy-6-(hydroxymethyl)tetrahydropyran-2-yl]oxy-4-hydroxy-6-(hydroxymethyl)tetrahydropyran-2-yl]oxy-4-hydroxy-6-(hydroxymethyl)tetrahydropyran-2-yl]oxy-4-hydroxy-6-(hydroxymethyl)tetrahydropyran-2-yl]oxy-2-[(2R,3S,4R,5R,6S)-5-amino-6-[(2R,3S,4R,5R,6R)-5-amino-4,6-dihydroxy-2-(hydroxymethyl)tetrahydropyran-3-yl]oxy-4-hydroxy-2-(hydroxymethyl)tetrahydropyran-3-yl]oxy-4-hydroxy-6-(hydroxymethyl)tetrahydropyran-3-yl]carbamate

>  <PUBCHEM_IUPAC_CAS_NAME>
N-[(2S,3R,4R,5S,6R)-5-[[(2S,3R,4R,5S,6R)-3-amino-5-[[(2S,3R,4R,5S,6R)-3-amino-5-[[(2S,3R,4R,5S,6R)-3-amino-5-[[(2S,3R,4R,5S,6R)-3-amino-5-[[(2S,3R,4R,5S,6R)-3-amino-5-[[(2S,3R,4R,5S,6R)-3-amino-4,5-dihydroxy-6-(hydroxymethyl)-2-oxanyl]oxy]-4-hydroxy-6-(hydroxymethyl)-2-oxanyl]oxy]-4-hydroxy-6-(hydroxymethyl)-2-oxanyl]oxy]-4-hydroxy-6-(hydroxymethyl)-2-oxanyl]oxy]-4-hydroxy-6-(hydroxymethyl)-2-oxanyl]oxy]-4-hydroxy-6-(hydroxymethyl)-2-oxanyl]oxy]-2-[[(2R,3S,4R,5R,6S)-5-amino-6-[[(2R,3S,4R,5R,6R)-5-amino-4,6-dihydroxy-2-(hydroxymethyl)-3-oxanyl]oxy]-4-hydroxy-2-(hydroxymethyl)-3-oxanyl]oxy]-4-hydroxy-6-(hydroxymethyl)-3-oxanyl]carbamic acid methyl ester

>  <PUBCHEM_IUPAC_NAME_MARKUP>
methyl <I>N</I>-[(2<I>S</I>,3<I>R</I>,4<I>R</I>,5<I>S</I>,6<I>R</I>)-5-[(2<I>S</I>,3<I>R</I>,4<I>R</I>,5<I>S</I>,6<I>R</I>)-3-amino-5-[(2<I>S</I>,3<I>R</I>,4<I>R</I>,5<I>S</I>,6<I>R</I>)-3-amino-5-[(2<I>S</I>,3<I>R</I>,4<I>R</I>,5<I>S</I>,6<I>R</I>)-3-amino-5-[(2<I>S</I>,3<I>R</I>,4<I>R</I>,5<I>S</I>,6<I>R</I>)-3-amino-5-[(2<I>S</I>,3<I>R</I>,4<I>R</I>,5<I>S</I>,6<I>R</I>)-3-amino-5-[(2<I>S</I>,3<I>R</I>,4<I>R</I>,5<I>S</I>,6<I>R</I>)-3-amino-4,5-dihydroxy-6-(hydroxymethyl)oxan-2-yl]oxy-4-hydroxy-6-(hydroxymethyl)oxan-2-yl]oxy-4-hydroxy-6-(hydroxymethyl)oxan-2-yl]oxy-4-hydroxy-6-(hydroxymethyl)oxan-2-yl]oxy-4-hydroxy-6-(hydroxymethyl)oxan-2-yl]oxy-4-hydroxy-6-(hydroxymethyl)oxan-2-yl]oxy-2-[(2<I>R</I>,3<I>S</I>,4<I>R</I>,5<I>R</I>,6<I>S</I>)-5-amino-6-[(2<I>R</I>,3<I>S</I>,4<I>R</I>,5<I>R</I>,6<I>R</I>)-5-amino-4,6-dihydroxy-2-(hydroxymethyl)oxan-3-yl]oxy-4-hydroxy-2-(hydroxymethyl)oxan-3-yl]oxy-4-hydroxy-6-(hydroxymethyl)oxan-3-yl]carbamate

>  <PUBCHEM_IUPAC_NAME>
methyl N-[(2S,3R,4R,5S,6R)-5-[(2S,3R,4R,5S,6R)-3-amino-5-[(2S,3R,4R,5S,6R)-3-amino-5-[(2S,3R,4R,5S,6R)-3-amino-5-[(2S,3R,4R,5S,6R)-3-amino-5-[(2S,3R,4R,5S,6R)-3-amino-5-[(2S,3R,4R,5S,6R)-3-amino-4,5-dihydroxy-6-(hydroxymethyl)oxan-2-yl]oxy-4-hydroxy-6-(hydroxymethyl)oxan-2-yl]oxy-4-hydroxy-6-(hydroxymethyl)oxan-2-yl]oxy-4-hydroxy-6-(hydroxymethyl)oxan-2-yl]oxy-4-hydroxy-6-(hydroxymethyl)oxan-2-yl]oxy-4-hydroxy-6-(hydroxymethyl)oxan-2-yl]oxy-2-[(2R,3S,4R,5R,6S)-5-amino-6-[(2R,3S,4R,5R,6R)-5-amino-4,6-dihydroxy-2-(hydroxymethyl)oxan-3-yl]oxy-4-hydroxy-2-(hydroxymethyl)oxan-3-yl]oxy-4-hydroxy-6-(hydroxymethyl)oxan-3-yl]carbamate

>  <PUBCHEM_IUPAC_SYSTEMATIC_NAME>
methyl N-[(2S,3R,4R,5S,6R)-5-[(2S,3R,4R,5S,6R)-3-azanyl-5-[(2S,3R,4R,5S,6R)-3-azanyl-5-[(2S,3R,4R,5S,6R)-3-azanyl-5-[(2S,3R,4R,5S,6R)-3-azanyl-5-[(2S,3R,4R,5S,6R)-3-azanyl-5-[(2S,3R,4R,5S,6R)-3-azanyl-6-(hydroxymethyl)-4,5-bis(oxidanyl)oxan-2-yl]oxy-6-(hydroxymethyl)-4-oxidanyl-oxan-2-yl]oxy-6-(hydroxymethyl)-4-oxidanyl-oxan-2-yl]oxy-6-(hydroxymethyl)-4-oxidanyl-oxan-2-yl]oxy-6-(hydroxymethyl)-4-oxidanyl-oxan-2-yl]oxy-6-(hydroxymethyl)-4-oxidanyl-oxan-2-yl]oxy-2-[(2R,3S,4R,5R,6S)-5-azanyl-6-[(2R,3S,4R,5R,6R)-5-azanyl-2-(hydroxymethyl)-4,6-bis(oxidanyl)oxan-3-yl]oxy-2-(hydroxymethyl)-4-oxidanyl-oxan-3-yl]oxy-6-(hydroxymethyl)-4-oxidanyl-oxan-3-yl]carbamate

>  <PUBCHEM_IUPAC_TRADITIONAL_NAME>
N-[(2S,3R,4R,5S,6R)-5-[(2S,3R,4R,5S,6R)-3-amino-5-[(2S,3R,4R,5S,6R)-3-amino-5-[(2S,3R,4R,5S,6R)-3-amino-5-[(2S,3R,4R,5S,6R)-3-amino-5-[(2S,3R,4R,5S,6R)-3-amino-5-[(2S,3R,4R,5S,6R)-3-amino-4,5-dihydroxy-6-methylol-tetrahydropyran-2-yl]oxy-4-hydroxy-6-methylol-tetrahydropyran-2-yl]oxy-4-hydroxy-6-methylol-tetrahydropyran-2-yl]oxy-4-hydroxy-6-methylol-tetrahydropyran-2-yl]oxy-4-hydroxy-6-methylol-tetrahydropyran-2-yl]oxy-4-hydroxy-6-methylol-tetrahydropyran-2-yl]oxy-2-[(2R,3S,4R,5R,6S)-5-amino-6-[(2R,3S,4R,5R,6R)-5-amino-4,6-dihydroxy-2-methylol-tetrahydropyran-3-yl]oxy-4-hydroxy-2-methylol-tetrahydropyran-3-yl]oxy-4-hydroxy-6-methylol-tetrahydropyran-3-yl]carbamic acid methyl ester

>  <PUBCHEM_IUPAC_INCHI>
InChI=1S/C56H103N9O39/c1-87-56(86)65-28-38(84)46(19(10-74)96-55(28)104-45-18(9-73)95-49(27(64)37(45)83)97-39-12(3-67)88-47(85)20(57)31(39)77)103-54-26(63)36(82)44(17(8-72)94-54)102-53-25(62)35(81)43(16(7-71)93-53)101-52-24(61)34(80)42(15(6-70)92-52)100-51-23(60)33(79)41(14(5-69)91-51)99-50-22(59)32(78)40(13(4-68)90-50)98-48-21(58)30(76)29(75)11(2-66)89-48/h11-55,66-85H,2-10,57-64H2,1H3,(H,65,86)/t11-,12-,13-,14-,15-,16-,17-,18-,19-,20-,21-,22-,23-,24-,25-,26-,27-,28-,29-,30-,31-,32-,33-,34-,35-,36-,37-,38-,39-,40-,41-,42-,43-,44-,45-,46-,47-,48+,49+,50+,51+,52+,53+,54+,55+/m1/s1

>  <PUBCHEM_IUPAC_INCHIKEY>
FLASNYPZGWUPSU-SICDJOISSA-N

>  <PUBCHEM_XLOGP3_AA>
-21.4

>  <PUBCHEM_EXACT_MASS>
1525.6353145

>  <PUBCHEM_MOLECULAR_FORMULA>
C56H103N9O39

>  <PUBCHEM_MOLECULAR_WEIGHT>
1526.5

>  <PUBCHEM_OPENEYE_CAN_SMILES>
COC(=O)NC1C(C(C(OC1OC2C(OC(C(C2O)N)OC3C(OC(C(C3O)N)O)CO)CO)CO)OC4C(C(C(C(O4)CO)OC5C(C(C(C(O5)CO)OC6C(C(C(C(O6)CO)OC7C(C(C(C(O7)CO)OC8C(C(C(C(O8)CO)OC9C(C(C(C(O9)CO)O)O)N)O)N)O)N)O)N)O)N)O)N)O

>  <PUBCHEM_OPENEYE_ISO_SMILES>
COC(=O)N[C@@H]1[C@H]([C@@H]([C@H](O[C@H]1O[C@@H]2[C@H](O[C@H]([C@@H]([C@H]2O)N)O[C@@H]3[C@H](O[C@H]([C@@H]([C@H]3O)N)O)CO)CO)CO)O[C@H]4[C@@H]([C@H]([C@@H]([C@H](O4)CO)O[C@H]5[C@@H]([C@H]([C@@H]([C@H](O5)CO)O[C@H]6[C@@H]([C@H]([C@@H]([C@H](O6)CO)O[C@H]7[C@@H]([C@H]([C@@H]([C@H](O7)CO)O[C@H]8[C@@H]([C@H]([C@@H]([C@H](O8)CO)O[C@H]9[C@@H]([C@H]([C@@H]([C@H](O9)CO)O)O)N)O)N)O)N)O)N)O)N)O)N)O

>  <PUBCHEM_CACTVS_TPSA>
808

>  <PUBCHEM_MONOISOTOPIC_WEIGHT>
1525.6353145

>  <PUBCHEM_TOTAL_CHARGE>
0

>  <PUBCHEM_HEAVY_ATOM_COUNT>
104

>  <PUBCHEM_ATOM_DEF_STEREO_COUNT>
45

>  <PUBCHEM_ATOM_UDEF_STEREO_COUNT>
0

>  <PUBCHEM_BOND_DEF_STEREO_COUNT>
0

>  <PUBCHEM_BOND_UDEF_STEREO_COUNT>
0

>  <PUBCHEM_ISOTOPIC_ATOM_COUNT>
0

>  <PUBCHEM_COMPONENT_COUNT>
1

>  <PUBCHEM_CACTVS_TAUTO_COUNT>
2

>  <PUBCHEM_COORDINATE_TYPE>
1
5
255

>  <PUBCHEM_BONDANNOTATIONS>
49  1  6
60  1  6
67  11  6
78  11  5
82  14  5
88  14  5
53  15  5
80  16  6
90  16  6
54  17  5
56  18  6
61  19  6
50  2  6
59  2  5
71  20  5
75  21  5
81  22  5
51  3  5
63  3  6
92  31  6
97  33  6
98  34  5
100  35  6
57  40  6
55  41  6
58  42  5
62  43  5
70  44  6
77  45  6
79  46  6
94  47  5
96  48  5
52  5  5
72  5  5
64  84  5
66  85  6
68  86  5
69  87  6
74  89  5
76  91  5
83  95  5
65  9  5
73  9  6
93  102  6
99  103  6

$$$$
