REMARK VINA RESULT:      -4.0      0.000      0.000
REMARK  10 active torsions:
REMARK  status: ('A' for Active; 'I' for Inactive)
REMARK    1  A    between atoms: O1_1  and  C6_12 
REMARK    2  A    between atoms: O2_2  and  C7_13 
REMARK    3  A    between atoms: O3_3  and  C12_18 
REMARK    4  A    between atoms: O4_4  and  C13_19 
REMARK    5  A    between atoms: C1_7  and  C10_16 
REMARK    6  A    between atoms: C2_8  and  C11_17 
REMARK    7  A    between atoms: C3_9  and  C14_20 
REMARK    8  A    between atoms: C3_9  and  C15_21 
REMARK    9  A    between atoms: C14_20  and  C18_24 
REMARK   10  A    between atoms: C15_21  and  C19_25 
REMARK viewdock state: V
ATOM      1  C3  UNK A   1      -1.723   2.604   3.440  1.00  0.00     0.165 C 
ATOM      2  C14 UNK A   1      -0.930   1.328   3.204  1.00  0.00     0.156 C 
ATOM      3  O5  UNK A   1      -1.480   0.525   2.453  1.00  0.00    -0.293 OA
ATOM      4  C18 UNK A   1       0.284   1.170   3.765  1.00  0.00     0.051 C 
ATOM      5  C10 UNK A   1       1.104   2.246   3.872  1.00  0.00     0.015 C 
ATOM      6  C1  UNK A   1       2.420   2.244   4.554  1.00  0.00    -0.033 A 
ATOM      7  C4  UNK A   1       3.196   1.068   4.520  1.00  0.00     0.051 A 
ATOM      8  C6  UNK A   1       4.462   1.019   5.138  1.00  0.00     0.102 A 
ATOM      9  C12 UNK A   1       4.943   2.158   5.814  1.00  0.00     0.099 A 
ATOM     10  C16 UNK A   1       4.168   3.329   5.864  1.00  0.00     0.040 A 
ATOM     11  C8  UNK A   1       2.914   3.375   5.233  1.00  0.00     0.014 A 
ATOM     12  O1  UNK A   1       5.263  -0.111   5.103  1.00  0.00    -0.353 OA
ATOM     13  C20 UNK A   1       5.476  -0.898   3.920  1.00  0.00     0.210 C 
ATOM     14  O3  UNK A   1       6.163   2.127   6.425  1.00  0.00    -0.358 OA
ATOM     15  H13 UNK A   1       6.002   2.220   7.383  1.00  0.00     0.217 HD
ATOM     16  C15 UNK A   1      -2.589   2.642   4.691  1.00  0.00     0.156 C 
ATOM     17  O6  UNK A   1      -3.628   3.291   4.611  1.00  0.00    -0.293 OA
ATOM     18  C19 UNK A   1      -2.126   2.020   5.790  1.00  0.00     0.051 C 
ATOM     19  C11 UNK A   1      -1.269   2.655   6.625  1.00  0.00     0.015 C 
ATOM     20  C2  UNK A   1      -0.644   2.036   7.826  1.00  0.00    -0.033 A 
ATOM     21  C5  UNK A   1      -1.371   1.982   9.032  1.00  0.00     0.051 A 
ATOM     22  C7  UNK A   1      -0.808   1.409  10.193  1.00  0.00     0.102 A 
ATOM     23  C13 UNK A   1       0.498   0.877  10.138  1.00  0.00     0.099 A 
ATOM     24  C17 UNK A   1       1.225   0.929   8.940  1.00  0.00     0.040 A 
ATOM     25  C9  UNK A   1       0.660   1.502   7.791  1.00  0.00     0.014 A 
ATOM     26  O2  UNK A   1      -1.503   1.349  11.388  1.00  0.00    -0.353 OA
ATOM     27  C21 UNK A   1      -1.625   2.456  12.295  1.00  0.00     0.210 C 
ATOM     28  O4  UNK A   1       1.074   0.305  11.239  1.00  0.00    -0.358 OA
ATOM     29  H14 UNK A   1       0.621  -0.532  11.434  1.00  0.00     0.217 HD
ENDMDL
REMARK VINA RESULT:      -4.0      9.277     11.090
REMARK  10 active torsions:
REMARK  status: ('A' for Active; 'I' for Inactive)
REMARK    1  A    between atoms: O1_1  and  C6_12 
REMARK    2  A    between atoms: O2_2  and  C7_13 
REMARK    3  A    between atoms: O3_3  and  C12_18 
REMARK    4  A    between atoms: O4_4  and  C13_19 
REMARK    5  A    between atoms: C1_7  and  C10_16 
REMARK    6  A    between atoms: C2_8  and  C11_17 
REMARK    7  A    between atoms: C3_9  and  C14_20 
REMARK    8  A    between atoms: C3_9  and  C15_21 
REMARK    9  A    between atoms: C14_20  and  C18_24 
REMARK   10  A    between atoms: C15_21  and  C19_25 
REMARK viewdock state: V
ATOM      1  C3  UNK A   1      -0.258  -6.355  12.817  1.00  0.00     0.165 C 
ATOM      2  C14 UNK A   1       0.731  -5.952  13.899  1.00  0.00     0.156 C 
ATOM      3  O5  UNK A   1       0.210  -5.653  14.971  1.00  0.00    -0.293 OA
ATOM      4  C18 UNK A   1       2.054  -5.980  13.652  1.00  0.00     0.051 C 
ATOM      5  C10 UNK A   1       2.660  -7.178  13.455  1.00  0.00     0.015 C 
ATOM      6  C1  UNK A   1       4.083  -7.356  13.077  1.00  0.00    -0.033 A 
ATOM      7  C4  UNK A   1       4.485  -6.997  11.774  1.00  0.00     0.051 A 
ATOM      8  C6  UNK A   1       5.829  -7.129  11.371  1.00  0.00     0.102 A 
ATOM      9  C12 UNK A   1       6.773  -7.646  12.279  1.00  0.00     0.099 A 
ATOM     10  C16 UNK A   1       6.377  -8.019  13.574  1.00  0.00     0.040 A 
ATOM     11  C8  UNK A   1       5.038  -7.870  13.974  1.00  0.00     0.014 A 
ATOM     12  O1  UNK A   1       6.264  -6.763  10.108  1.00  0.00    -0.353 OA
ATOM     13  C20 UNK A   1       5.754  -7.338   8.893  1.00  0.00     0.210 C 
ATOM     14  O3  UNK A   1       8.078  -7.788  11.903  1.00  0.00    -0.358 OA
ATOM     15  H13 UNK A   1       8.228  -7.171  11.162  1.00  0.00     0.217 HD
ATOM     16  C15 UNK A   1      -0.763  -5.242  11.909  1.00  0.00     0.156 C 
ATOM     17  O6  UNK A   1       0.074  -4.715  11.182  1.00  0.00    -0.293 OA
ATOM     18  C19 UNK A   1      -2.055  -4.886  12.018  1.00  0.00     0.051 C 
ATOM     19  C11 UNK A   1      -2.915  -5.646  12.738  1.00  0.00     0.015 C 
ATOM     20  C2  UNK A   1      -4.375  -5.382  12.864  1.00  0.00    -0.033 A 
ATOM     21  C5  UNK A   1      -4.837  -4.542  13.896  1.00  0.00     0.051 A 
ATOM     22  C7  UNK A   1      -6.215  -4.274  14.051  1.00  0.00     0.102 A 
ATOM     23  C13 UNK A   1      -7.137  -4.853  13.153  1.00  0.00     0.099 A 
ATOM     24  C17 UNK A   1      -6.681  -5.691  12.125  1.00  0.00     0.040 A 
ATOM     25  C9  UNK A   1      -5.310  -5.954  11.978  1.00  0.00     0.014 A 
ATOM     26  O2  UNK A   1      -6.691  -3.455  15.060  1.00  0.00    -0.353 OA
ATOM     27  C21 UNK A   1      -6.044  -2.241  15.472  1.00  0.00     0.210 C 
ATOM     28  O4  UNK A   1      -8.479  -4.610  13.265  1.00  0.00    -0.358 OA
ATOM     29  H14 UNK A   1      -8.696  -4.460  14.200  1.00  0.00     0.217 HD
ENDMDL
REMARK VINA RESULT:      -3.9      9.998     12.552
REMARK  10 active torsions:
REMARK  status: ('A' for Active; 'I' for Inactive)
REMARK    1  A    between atoms: O1_1  and  C6_12 
REMARK    2  A    between atoms: O2_2  and  C7_13 
REMARK    3  A    between atoms: O3_3  and  C12_18 
REMARK    4  A    between atoms: O4_4  and  C13_19 
REMARK    5  A    between atoms: C1_7  and  C10_16 
REMARK    6  A    between atoms: C2_8  and  C11_17 
REMARK    7  A    between atoms: C3_9  and  C14_20 
REMARK    8  A    between atoms: C3_9  and  C15_21 
REMARK    9  A    between atoms: C14_20  and  C18_24 
REMARK   10  A    between atoms: C15_21  and  C19_25 
REMARK viewdock state: V
ATOM      1  C3  UNK A   1      -8.503  -5.652  13.279  1.00  0.00     0.165 C 
ATOM      2  C14 UNK A   1      -8.885  -4.188  13.128  1.00  0.00     0.156 C 
ATOM      3  O5  UNK A   1      -9.974  -4.005  12.588  1.00  0.00    -0.293 OA
ATOM      4  C18 UNK A   1      -8.074  -3.224  13.603  1.00  0.00     0.051 C 
ATOM      5  C10 UNK A   1      -7.209  -3.526  14.604  1.00  0.00     0.015 C 
ATOM      6  C1  UNK A   1      -6.192  -2.598  15.154  1.00  0.00    -0.033 A 
ATOM      7  C4  UNK A   1      -6.485  -1.220  15.188  1.00  0.00     0.051 A 
ATOM      8  C6  UNK A   1      -5.560  -0.298  15.718  1.00  0.00     0.102 A 
ATOM      9  C12 UNK A   1      -4.321  -0.764  16.199  1.00  0.00     0.099 A 
ATOM     10  C16 UNK A   1      -4.017  -2.135  16.155  1.00  0.00     0.040 A 
ATOM     11  C8  UNK A   1      -4.950  -3.050  15.639  1.00  0.00     0.014 A 
ATOM     12  O1  UNK A   1      -5.824   1.060  15.791  1.00  0.00    -0.353 OA
ATOM     13  C20 UNK A   1      -5.476   1.995  14.755  1.00  0.00     0.210 C 
ATOM     14  O3  UNK A   1      -3.409   0.115  16.708  1.00  0.00    -0.358 OA
ATOM     15  H13 UNK A   1      -2.617  -0.404  16.946  1.00  0.00     0.217 HD
ATOM     16  C15 UNK A   1      -7.969  -6.346  12.034  1.00  0.00     0.156 C 
ATOM     17  O6  UNK A   1      -8.761  -7.064  11.432  1.00  0.00    -0.293 OA
ATOM     18  C19 UNK A   1      -6.671  -6.168  11.730  1.00  0.00     0.051 C 
ATOM     19  C11 UNK A   1      -5.718  -6.321  12.680  1.00  0.00     0.015 C 
ATOM     20  C2  UNK A   1      -4.265  -6.080  12.468  1.00  0.00    -0.033 A 
ATOM     21  C5  UNK A   1      -3.544  -6.929  11.606  1.00  0.00     0.051 A 
ATOM     22  C7  UNK A   1      -2.162  -6.736  11.385  1.00  0.00     0.102 A 
ATOM     23  C13 UNK A   1      -1.501  -5.671  12.033  1.00  0.00     0.099 A 
ATOM     24  C17 UNK A   1      -2.216  -4.823  12.893  1.00  0.00     0.040 A 
ATOM     25  C9  UNK A   1      -3.588  -5.023  13.109  1.00  0.00     0.014 A 
ATOM     26  O2  UNK A   1      -1.434  -7.561  10.546  1.00  0.00    -0.353 OA
ATOM     27  C21 UNK A   1      -1.351  -8.986  10.704  1.00  0.00     0.210 C 
ATOM     28  O4  UNK A   1      -0.166  -5.445  11.837  1.00  0.00    -0.358 OA
ATOM     29  H14 UNK A   1       0.190  -6.140  11.259  1.00  0.00     0.217 HD
ENDMDL
REMARK VINA RESULT:      -3.9      2.720      4.691
REMARK  10 active torsions:
REMARK  status: ('A' for Active; 'I' for Inactive)
REMARK    1  A    between atoms: O1_1  and  C6_12 
REMARK    2  A    between atoms: O2_2  and  C7_13 
REMARK    3  A    between atoms: O3_3  and  C12_18 
REMARK    4  A    between atoms: O4_4  and  C13_19 
REMARK    5  A    between atoms: C1_7  and  C10_16 
REMARK    6  A    between atoms: C2_8  and  C11_17 
REMARK    7  A    between atoms: C3_9  and  C14_20 
REMARK    8  A    between atoms: C3_9  and  C15_21 
REMARK    9  A    between atoms: C14_20  and  C18_24 
REMARK   10  A    between atoms: C15_21  and  C19_25 
REMARK viewdock state: V
ATOM      1  C3  UNK A   1       2.025   0.425   3.230  1.00  0.00     0.165 C 
ATOM      2  C14 UNK A   1       1.930  -1.056   3.560  1.00  0.00     0.156 C 
ATOM      3  O5  UNK A   1       0.820  -1.416   3.945  1.00  0.00    -0.293 OA
ATOM      4  C18 UNK A   1       2.997  -1.859   3.386  1.00  0.00     0.051 C 
ATOM      5  C10 UNK A   1       4.237  -1.366   3.633  1.00  0.00     0.015 C 
ATOM      6  C1  UNK A   1       5.490  -2.159   3.582  1.00  0.00    -0.033 A 
ATOM      7  C4  UNK A   1       5.483  -3.465   4.109  1.00  0.00     0.051 A 
ATOM      8  C6  UNK A   1       6.642  -4.267   4.068  1.00  0.00     0.102 A 
ATOM      9  C12 UNK A   1       7.824  -3.741   3.510  1.00  0.00     0.099 A 
ATOM     10  C16 UNK A   1       7.841  -2.433   2.996  1.00  0.00     0.040 A 
ATOM     11  C8  UNK A   1       6.678  -1.646   3.026  1.00  0.00     0.014 A 
ATOM     12  O1  UNK A   1       6.666  -5.564   4.554  1.00  0.00    -0.353 OA
ATOM     13  C20 UNK A   1       5.944  -6.651   3.953  1.00  0.00     0.210 C 
ATOM     14  O3  UNK A   1       8.958  -4.499   3.469  1.00  0.00    -0.358 OA
ATOM     15  H13 UNK A   1       8.737  -5.313   2.979  1.00  0.00     0.217 HD
ATOM     16  C15 UNK A   1       2.248   1.369   4.404  1.00  0.00     0.156 C 
ATOM     17  O6  UNK A   1       3.328   1.951   4.433  1.00  0.00    -0.293 OA
ATOM     18  C19 UNK A   1       1.281   1.444   5.336  1.00  0.00     0.051 C 
ATOM     19  C11 UNK A   1       1.602   1.505   6.650  1.00  0.00     0.015 C 
ATOM     20  C2  UNK A   1       0.612   1.519   7.762  1.00  0.00    -0.033 A 
ATOM     21  C5  UNK A   1       0.872   0.770   8.927  1.00  0.00     0.051 A 
ATOM     22  C7  UNK A   1      -0.046   0.754  10.000  1.00  0.00     0.102 A 
ATOM     23  C13 UNK A   1      -1.236   1.506   9.902  1.00  0.00     0.099 A 
ATOM     24  C17 UNK A   1      -1.499   2.253   8.744  1.00  0.00     0.040 A 
ATOM     25  C9  UNK A   1      -0.582   2.262   7.682  1.00  0.00     0.014 A 
ATOM     26  O2  UNK A   1       0.188   0.021  11.150  1.00  0.00    -0.353 OA
ATOM     27  C21 UNK A   1       0.844   0.552  12.313  1.00  0.00     0.210 C 
ATOM     28  O4  UNK A   1      -2.145   1.523  10.924  1.00  0.00    -0.358 OA
ATOM     29  H14 UNK A   1      -1.685   1.337  11.759  1.00  0.00     0.217 HD
ENDMDL
REMARK VINA RESULT:      -3.9      3.497      7.489
REMARK  10 active torsions:
REMARK  status: ('A' for Active; 'I' for Inactive)
REMARK    1  A    between atoms: O1_1  and  C6_12 
REMARK    2  A    between atoms: O2_2  and  C7_13 
REMARK    3  A    between atoms: O3_3  and  C12_18 
REMARK    4  A    between atoms: O4_4  and  C13_19 
REMARK    5  A    between atoms: C1_7  and  C10_16 
REMARK    6  A    between atoms: C2_8  and  C11_17 
REMARK    7  A    between atoms: C3_9  and  C14_20 
REMARK    8  A    between atoms: C3_9  and  C15_21 
REMARK    9  A    between atoms: C14_20  and  C18_24 
REMARK   10  A    between atoms: C15_21  and  C19_25 
REMARK viewdock state: V
ATOM      1  C3  UNK A   1      -2.478   3.165   4.218  1.00  0.00     0.165 C 
ATOM      2  C14 UNK A   1      -3.336   1.953   3.891  1.00  0.00     0.156 C 
ATOM      3  O5  UNK A   1      -2.863   1.219   3.027  1.00  0.00    -0.293 OA
ATOM      4  C18 UNK A   1      -4.487   1.739   4.557  1.00  0.00     0.051 C 
ATOM      5  C10 UNK A   1      -4.636   2.266   5.799  1.00  0.00     0.015 C 
ATOM      6  C1  UNK A   1      -5.878   2.197   6.605  1.00  0.00    -0.033 A 
ATOM      7  C4  UNK A   1      -6.101   3.183   7.587  1.00  0.00     0.051 A 
ATOM      8  C6  UNK A   1      -7.275   3.173   8.367  1.00  0.00     0.102 A 
ATOM      9  C12 UNK A   1      -8.223   2.150   8.172  1.00  0.00     0.099 A 
ATOM     10  C16 UNK A   1      -8.001   1.156   7.204  1.00  0.00     0.040 A 
ATOM     11  C8  UNK A   1      -6.835   1.181   6.420  1.00  0.00     0.014 A 
ATOM     12  O1  UNK A   1      -7.539   4.139   9.324  1.00  0.00    -0.353 OA
ATOM     13  C20 UNK A   1      -6.548   5.051   9.828  1.00  0.00     0.210 C 
ATOM     14  O3  UNK A   1      -9.362   2.120   8.924  1.00  0.00    -0.358 OA
ATOM     15  H13 UNK A   1      -9.785   2.995   8.833  1.00  0.00     0.217 HD
ATOM     16  C15 UNK A   1      -0.971   2.946   4.230  1.00  0.00     0.156 C 
ATOM     17  O6  UNK A   1      -0.366   3.288   3.218  1.00  0.00    -0.293 OA
ATOM     18  C19 UNK A   1      -0.437   2.348   5.309  1.00  0.00     0.051 C 
ATOM     19  C11 UNK A   1      -0.999   2.513   6.531  1.00  0.00     0.015 C 
ATOM     20  C2  UNK A   1      -0.449   1.955   7.797  1.00  0.00    -0.033 A 
ATOM     21  C5  UNK A   1      -1.269   1.904   8.941  1.00  0.00     0.051 A 
ATOM     22  C7  UNK A   1      -0.781   1.388  10.162  1.00  0.00     0.102 A 
ATOM     23  C13 UNK A   1       0.546   0.912  10.229  1.00  0.00     0.099 A 
ATOM     24  C17 UNK A   1       1.365   0.961   9.092  1.00  0.00     0.040 A 
ATOM     25  C9  UNK A   1       0.873   1.477   7.883  1.00  0.00     0.014 A 
ATOM     26  O2  UNK A   1      -1.568   1.333  11.299  1.00  0.00    -0.353 OA
ATOM     27  C21 UNK A   1      -2.428   2.401  11.725  1.00  0.00     0.210 C 
ATOM     28  O4  UNK A   1       1.052   0.396  11.390  1.00  0.00    -0.358 OA
ATOM     29  H14 UNK A   1       1.751   0.985  11.719  1.00  0.00     0.217 HD
ENDMDL
REMARK VINA RESULT:      -3.9      9.288     13.329
REMARK  10 active torsions:
REMARK  status: ('A' for Active; 'I' for Inactive)
REMARK    1  A    between atoms: O1_1  and  C6_12 
REMARK    2  A    between atoms: O2_2  and  C7_13 
REMARK    3  A    between atoms: O3_3  and  C12_18 
REMARK    4  A    between atoms: O4_4  and  C13_19 
REMARK    5  A    between atoms: C1_7  and  C10_16 
REMARK    6  A    between atoms: C2_8  and  C11_17 
REMARK    7  A    between atoms: C3_9  and  C14_20 
REMARK    8  A    between atoms: C3_9  and  C15_21 
REMARK    9  A    between atoms: C14_20  and  C18_24 
REMARK   10  A    between atoms: C15_21  and  C19_25 
REMARK viewdock state: V
ATOM      1  C3  UNK A   1      -5.351  -2.523  17.421  1.00  0.00     0.165 C 
ATOM      2  C14 UNK A   1      -6.417  -2.063  16.439  1.00  0.00     0.156 C 
ATOM      3  O5  UNK A   1      -6.560  -0.843  16.387  1.00  0.00    -0.293 OA
ATOM      4  C18 UNK A   1      -7.083  -2.963  15.692  1.00  0.00     0.051 C 
ATOM      5  C10 UNK A   1      -6.955  -2.918  14.341  1.00  0.00     0.015 C 
ATOM      6  C1  UNK A   1      -7.545  -3.901  13.401  1.00  0.00    -0.033 A 
ATOM      7  C4  UNK A   1      -8.948  -3.956  13.275  1.00  0.00     0.051 A 
ATOM      8  C6  UNK A   1      -9.558  -4.860  12.382  1.00  0.00     0.102 A 
ATOM      9  C12 UNK A   1      -8.751  -5.731  11.625  1.00  0.00     0.099 A 
ATOM     10  C16 UNK A   1      -7.353  -5.692  11.757  1.00  0.00     0.040 A 
ATOM     11  C8  UNK A   1      -6.751  -4.778  12.638  1.00  0.00     0.014 A 
ATOM     12  O1  UNK A   1     -10.932  -4.923  12.213  1.00  0.00    -0.353 OA
ATOM     13  C20 UNK A   1     -11.767  -5.905  12.849  1.00  0.00     0.210 C 
ATOM     14  O3  UNK A   1      -9.325  -6.619  10.761  1.00  0.00    -0.358 OA
ATOM     15  H13 UNK A   1      -9.397  -7.469  11.236  1.00  0.00     0.217 HD
ATOM     16  C15 UNK A   1      -3.913  -2.152  17.086  1.00  0.00     0.156 C 
ATOM     17  O6  UNK A   1      -3.298  -1.532  17.948  1.00  0.00    -0.293 OA
ATOM     18  C19 UNK A   1      -3.455  -2.476  15.863  1.00  0.00     0.051 C 
ATOM     19  C11 UNK A   1      -3.225  -3.771  15.540  1.00  0.00     0.015 C 
ATOM     20  C2  UNK A   1      -2.654  -4.231  14.245  1.00  0.00    -0.033 A 
ATOM     21  C5  UNK A   1      -1.336  -3.868  13.904  1.00  0.00     0.051 A 
ATOM     22  C7  UNK A   1      -0.763  -4.280  12.681  1.00  0.00     0.102 A 
ATOM     23  C13 UNK A   1      -1.522  -5.072  11.794  1.00  0.00     0.099 A 
ATOM     24  C17 UNK A   1      -2.835  -5.435  12.129  1.00  0.00     0.040 A 
ATOM     25  C9  UNK A   1      -3.398  -5.020  13.345  1.00  0.00     0.014 A 
ATOM     26  O2  UNK A   1       0.528  -3.931  12.325  1.00  0.00    -0.353 OA
ATOM     27  C21 UNK A   1       1.701  -4.562  12.863  1.00  0.00     0.210 C 
ATOM     28  O4  UNK A   1      -0.999  -5.498  10.604  1.00  0.00    -0.358 OA
ATOM     29  H14 UNK A   1      -1.626  -6.111  10.185  1.00  0.00     0.217 HD
ENDMDL
REMARK VINA RESULT:      -3.9      9.344     13.078
REMARK  10 active torsions:
REMARK  status: ('A' for Active; 'I' for Inactive)
REMARK    1  A    between atoms: O1_1  and  C6_12 
REMARK    2  A    between atoms: O2_2  and  C7_13 
REMARK    3  A    between atoms: O3_3  and  C12_18 
REMARK    4  A    between atoms: O4_4  and  C13_19 
REMARK    5  A    between atoms: C1_7  and  C10_16 
REMARK    6  A    between atoms: C2_8  and  C11_17 
REMARK    7  A    between atoms: C3_9  and  C14_20 
REMARK    8  A    between atoms: C3_9  and  C15_21 
REMARK    9  A    between atoms: C14_20  and  C18_24 
REMARK   10  A    between atoms: C15_21  and  C19_25 
REMARK viewdock state: V
ATOM      1  C3  UNK A   1      -0.143  -6.386  12.919  1.00  0.00     0.165 C 
ATOM      2  C14 UNK A   1      -0.625  -5.193  12.108  1.00  0.00     0.156 C 
ATOM      3  O5  UNK A   1       0.268  -4.596  11.511  1.00  0.00    -0.293 OA
ATOM      4  C18 UNK A   1      -1.936  -4.893  12.058  1.00  0.00     0.051 C 
ATOM      5  C10 UNK A   1      -2.824  -5.725  12.659  1.00  0.00     0.015 C 
ATOM      6  C1  UNK A   1      -4.281  -5.472  12.771  1.00  0.00    -0.033 A 
ATOM      7  C4  UNK A   1      -4.747  -4.666  13.829  1.00  0.00     0.051 A 
ATOM      8  C6  UNK A   1      -6.120  -4.380  13.969  1.00  0.00     0.102 A 
ATOM      9  C12 UNK A   1      -7.035  -4.927  13.049  1.00  0.00     0.099 A 
ATOM     10  C16 UNK A   1      -6.579  -5.743  11.999  1.00  0.00     0.040 A 
ATOM     11  C8  UNK A   1      -5.207  -6.011  11.857  1.00  0.00     0.014 A 
ATOM     12  O1  UNK A   1      -6.610  -3.572  14.982  1.00  0.00    -0.353 OA
ATOM     13  C20 UNK A   1      -6.091  -2.265  15.278  1.00  0.00     0.210 C 
ATOM     14  O3  UNK A   1      -8.369  -4.668  13.173  1.00  0.00    -0.358 OA
ATOM     15  H13 UNK A   1      -8.600  -4.815  14.110  1.00  0.00     0.217 HD
ATOM     16  C15 UNK A   1       0.820  -6.087  14.060  1.00  0.00     0.156 C 
ATOM     17  O6  UNK A   1       0.397  -5.352  14.947  1.00  0.00    -0.293 OA
ATOM     18  C19 UNK A   1       2.062  -6.595  13.977  1.00  0.00     0.051 C 
ATOM     19  C11 UNK A   1       2.791  -6.440  12.845  1.00  0.00     0.015 C 
ATOM     20  C2  UNK A   1       4.143  -7.021  12.623  1.00  0.00    -0.033 A 
ATOM     21  C5  UNK A   1       4.736  -6.921  11.349  1.00  0.00     0.051 A 
ATOM     22  C7  UNK A   1       6.015  -7.466  11.099  1.00  0.00     0.102 A 
ATOM     23  C13 UNK A   1       6.707  -8.113  12.145  1.00  0.00     0.099 A 
ATOM     24  C17 UNK A   1       6.119  -8.215  13.415  1.00  0.00     0.040 A 
ATOM     25  C9  UNK A   1       4.848  -7.672  13.655  1.00  0.00     0.014 A 
ATOM     26  O2  UNK A   1       6.613  -7.383   9.854  1.00  0.00    -0.353 OA
ATOM     27  C21 UNK A   1       5.888  -7.437   8.616  1.00  0.00     0.210 C 
ATOM     28  O4  UNK A   1       7.951  -8.645  11.945  1.00  0.00    -0.358 OA
ATOM     29  H14 UNK A   1       8.546  -8.330  12.645  1.00  0.00     0.217 HD
ENDMDL
REMARK VINA RESULT:      -3.8     10.040     14.360
REMARK  10 active torsions:
REMARK  status: ('A' for Active; 'I' for Inactive)
REMARK    1  A    between atoms: O1_1  and  C6_12 
REMARK    2  A    between atoms: O2_2  and  C7_13 
REMARK    3  A    between atoms: O3_3  and  C12_18 
REMARK    4  A    between atoms: O4_4  and  C13_19 
REMARK    5  A    between atoms: C1_7  and  C10_16 
REMARK    6  A    between atoms: C2_8  and  C11_17 
REMARK    7  A    between atoms: C3_9  and  C14_20 
REMARK    8  A    between atoms: C3_9  and  C15_21 
REMARK    9  A    between atoms: C14_20  and  C18_24 
REMARK   10  A    between atoms: C15_21  and  C19_25 
REMARK viewdock state: V
ATOM      1  C3  UNK A   1       9.097 -12.306   8.238  1.00  0.00     0.165 C 
ATOM      2  C14 UNK A   1       9.153 -12.027   9.732  1.00  0.00     0.156 C 
ATOM      3  O5  UNK A   1       9.798 -12.854  10.374  1.00  0.00    -0.293 OA
ATOM      4  C18 UNK A   1       8.561 -10.930  10.240  1.00  0.00     0.051 C 
ATOM      5  C10 UNK A   1       7.223 -10.771  10.079  1.00  0.00     0.015 C 
ATOM      6  C1  UNK A   1       6.424  -9.670  10.667  1.00  0.00    -0.033 A 
ATOM      7  C4  UNK A   1       7.100  -8.611  11.306  1.00  0.00     0.051 A 
ATOM      8  C6  UNK A   1       6.388  -7.531  11.865  1.00  0.00     0.102 A 
ATOM      9  C12 UNK A   1       4.981  -7.527  11.800  1.00  0.00     0.099 A 
ATOM     10  C16 UNK A   1       4.299  -8.586  11.178  1.00  0.00     0.040 A 
ATOM     11  C8  UNK A   1       5.017  -9.652  10.609  1.00  0.00     0.014 A 
ATOM     12  O1  UNK A   1       7.020  -6.462  12.478  1.00  0.00    -0.353 OA
ATOM     13  C20 UNK A   1       8.162  -6.601  13.340  1.00  0.00     0.210 C 
ATOM     14  O3  UNK A   1       4.274  -6.493  12.344  1.00  0.00    -0.358 OA
ATOM     15  H13 UNK A   1       4.034  -5.897  11.609  1.00  0.00     0.217 HD
ATOM     16  C15 UNK A   1       9.800 -11.303   7.334  1.00  0.00     0.156 C 
ATOM     17  O6  UNK A   1      10.927 -11.610   6.958  1.00  0.00    -0.293 OA
ATOM     18  C19 UNK A   1       9.164 -10.148   7.071  1.00  0.00     0.051 C 
ATOM     19  C11 UNK A   1       7.843 -10.147   6.772  1.00  0.00     0.015 C 
ATOM     20  C2  UNK A   1       7.061  -8.937   6.398  1.00  0.00    -0.033 A 
ATOM     21  C5  UNK A   1       6.967  -8.569   5.041  1.00  0.00     0.051 A 
ATOM     22  C7  UNK A   1       6.240  -7.424   4.648  1.00  0.00     0.102 A 
ATOM     23  C13 UNK A   1       5.595  -6.644   5.632  1.00  0.00     0.099 A 
ATOM     24  C17 UNK A   1       5.687  -7.006   6.984  1.00  0.00     0.040 A 
ATOM     25  C9  UNK A   1       6.413  -8.144   7.366  1.00  0.00     0.014 A 
ATOM     26  O2  UNK A   1       6.137  -7.043   3.322  1.00  0.00    -0.353 OA
ATOM     27  C21 UNK A   1       7.157  -6.315   2.621  1.00  0.00     0.210 C 
ATOM     28  O4  UNK A   1       4.874  -5.533   5.290  1.00  0.00    -0.358 OA
ATOM     29  H14 UNK A   1       4.595  -5.075   6.101  1.00  0.00     0.217 HD
ENDMDL
REMARK VINA RESULT:      -3.8      1.652      5.732
REMARK  10 active torsions:
REMARK  status: ('A' for Active; 'I' for Inactive)
REMARK    1  A    between atoms: O1_1  and  C6_12 
REMARK    2  A    between atoms: O2_2  and  C7_13 
REMARK    3  A    between atoms: O3_3  and  C12_18 
REMARK    4  A    between atoms: O4_4  and  C13_19 
REMARK    5  A    between atoms: C1_7  and  C10_16 
REMARK    6  A    between atoms: C2_8  and  C11_17 
REMARK    7  A    between atoms: C3_9  and  C14_20 
REMARK    8  A    between atoms: C3_9  and  C15_21 
REMARK    9  A    between atoms: C14_20  and  C18_24 
REMARK   10  A    between atoms: C15_21  and  C19_25 
REMARK viewdock state: V
ATOM      1  C3  UNK A   1       3.174   2.810   4.956  1.00  0.00     0.165 C 
ATOM      2  C14 UNK A   1       2.755   1.998   3.741  1.00  0.00     0.156 C 
ATOM      3  O5  UNK A   1       3.606   1.942   2.856  1.00  0.00    -0.293 OA
ATOM      4  C18 UNK A   1       1.557   1.385   3.715  1.00  0.00     0.051 C 
ATOM      5  C10 UNK A   1       0.440   2.114   3.970  1.00  0.00     0.015 C 
ATOM      6  C1  UNK A   1      -0.947   1.598   3.879  1.00  0.00    -0.033 A 
ATOM      7  C4  UNK A   1      -1.900   2.056   4.811  1.00  0.00     0.051 A 
ATOM      8  C6  UNK A   1      -3.236   1.611   4.755  1.00  0.00     0.102 A 
ATOM      9  C12 UNK A   1      -3.612   0.681   3.767  1.00  0.00     0.099 A 
ATOM     10  C16 UNK A   1      -2.664   0.209   2.843  1.00  0.00     0.040 A 
ATOM     11  C8  UNK A   1      -1.337   0.669   2.895  1.00  0.00     0.014 A 
ATOM     12  O1  UNK A   1      -4.205   2.058   5.638  1.00  0.00    -0.353 OA
ATOM     13  C20 UNK A   1      -4.058   3.235   6.450  1.00  0.00     0.210 C 
ATOM     14  O3  UNK A   1      -4.900   0.232   3.703  1.00  0.00    -0.358 OA
ATOM     15  H13 UNK A   1      -5.472   1.021   3.646  1.00  0.00     0.217 HD
ATOM     16  C15 UNK A   1       3.443   2.029   6.235  1.00  0.00     0.156 C 
ATOM     17  O6  UNK A   1       4.411   1.275   6.216  1.00  0.00    -0.293 OA
ATOM     18  C19 UNK A   1       2.574   2.178   7.251  1.00  0.00     0.051 C 
ATOM     19  C11 UNK A   1       1.507   1.351   7.365  1.00  0.00     0.015 C 
ATOM     20  C2  UNK A   1       0.451   1.473   8.407  1.00  0.00    -0.033 A 
ATOM     21  C5  UNK A   1       0.568   0.728   9.598  1.00  0.00     0.051 A 
ATOM     22  C7  UNK A   1      -0.418   0.813  10.606  1.00  0.00     0.102 A 
ATOM     23  C13 UNK A   1      -1.529   1.661  10.416  1.00  0.00     0.099 A 
ATOM     24  C17 UNK A   1      -1.649   2.403   9.232  1.00  0.00     0.040 A 
ATOM     25  C9  UNK A   1      -0.667   2.312   8.234  1.00  0.00     0.014 A 
ATOM     26  O2  UNK A   1      -0.325   0.087  11.780  1.00  0.00    -0.353 OA
ATOM     27  C21 UNK A   1       0.683   0.313  12.779  1.00  0.00     0.210 C 
ATOM     28  O4  UNK A   1      -2.500   1.776  11.373  1.00  0.00    -0.358 OA
ATOM     29  H14 UNK A   1      -2.838   0.891  11.589  1.00  0.00     0.217 HD
ENDMDL
